MODEL 1
REMARK VINA RESULT:      -6.0      0.000      0.000
REMARK  10 active torsions:
REMARK  status: ('A' for Active; 'I' for Inactive)
REMARK    1  A    between atoms: P_1  and  O_5 
REMARK    2  A    between atoms: O_5  and  C_23 
REMARK    3  A    between atoms: N_16  and  C_25 
REMARK    4  A    between atoms: N_17  and  C_28 
REMARK    5  A    between atoms: N_17  and  C_30 
REMARK    6  A    between atoms: C_21  and  C_23 
REMARK    7  A    between atoms: C_25  and  C_26 
REMARK    8  A    between atoms: C_26  and  C_27 
REMARK    9  A    between atoms: C_27  and  C_28 
REMARK   10  A    between atoms: C_28  and  C_29 
ROOT
HETATM    1  O   UNL A   1       8.644   0.581  22.860  1.00  0.00    -0.327 OA
HETATM    2  O   UNL A   1      10.133   2.943  20.605  1.00  0.00    -0.215 OA
HETATM    3  O   UNL A   1      11.104   2.363  23.093  1.00  0.00    -0.218 OA
HETATM    4  O   UNL A   1      11.084   0.007  21.263  1.00  0.00    -0.267 OA
HETATM    5  O   UNL A   1       7.201  -0.604  18.869  1.00  0.00    -0.245 OA
HETATM    6  N   UNL A   1       7.736   0.736  20.699  1.00  0.00    -0.183 NA
HETATM    7  N   UNL A   1       9.343  -0.525  19.807  1.00  0.00    -0.248 N 
HETATM    8  C   UNL A   1       8.881   1.026  21.525  1.00  0.00     0.284 A 
HETATM    9  C   UNL A   1       9.209   2.510  21.581  1.00  0.00     0.240 C 
HETATM   10  C   UNL A   1       9.720   2.692  22.997  1.00  0.00     0.217 C 
HETATM   11  C   UNL A   1       8.899   1.668  23.776  1.00  0.00     0.181 C 
HETATM   12  C   UNL A   1       9.931   0.125  20.871  1.00  0.00     0.290 A 
HETATM   13  C   UNL A   1       8.009  -0.187  19.688  1.00  0.00     0.350 A 
ENDROOT
BRANCH  11  14
HETATM   14  C   UNL A   1       7.558   2.213  24.250  1.00  0.00     0.188 C 
BRANCH  14  15
HETATM   15  O   UNL A   1       6.606   1.164  24.218  1.00  0.00    -0.261 OA
BRANCH  15  16
HETATM   16  P   UNL A   1       5.538   1.053  25.430  1.00  0.00     0.423 P 
HETATM   17  O   UNL A   1       5.901   2.332  26.350  1.00  0.00    -0.617 OA
HETATM   18  O   UNL A   1       4.135   1.471  24.745  1.00  0.00    -0.617 OA
HETATM   19  O   UNL A   1       5.534  -0.264  26.150  1.00  0.00    -0.617 OA
ENDBRANCH  15  16
ENDBRANCH  14  15
ENDBRANCH  11  14
BRANCH   7  20
HETATM   20  C   UNL A   1      10.037  -1.468  18.953  1.00  0.00     0.114 C 
BRANCH  20  21
HETATM   21  C   UNL A   1       9.560  -2.904  19.152  1.00  0.00     0.027 C 
BRANCH  21  22
HETATM   22  C   UNL A   1      10.321  -3.621  20.279  1.00  0.00     0.032 C 
BRANCH  22  23
HETATM   23  C   UNL A   1       9.433  -4.133  21.422  1.00  0.00     0.177 C 
BRANCH  23  24
HETATM   24  N   UNL A   1      10.020  -5.301  22.079  1.00  0.00    -0.091 NA
HETATM   25  O   UNL A   1       9.014  -5.713  23.044  1.00  0.00    -0.115 OA
BRANCH  24  26
HETATM   26  C   UNL A   1      10.133  -6.421  21.148  1.00  0.00     0.286 C 
HETATM   27  O   UNL A   1       8.855  -6.905  20.740  1.00  0.00    -0.198 OA
ENDBRANCH  24  26
ENDBRANCH  23  24
BRANCH  23  28
HETATM   28  C   UNL A   1       9.194  -3.068  22.478  1.00  0.00     0.203 C 
HETATM   29  O   UNL A   1       7.915  -2.608  22.455  1.00  0.00    -0.646 OA
HETATM   30  O   UNL A   1      10.031  -2.649  23.267  1.00  0.00    -0.646 OA
ENDBRANCH  23  28
ENDBRANCH  22  23
ENDBRANCH  21  22
ENDBRANCH  20  21
ENDBRANCH   7  20
TORSDOF 10
ENDMDL
MODEL 2
REMARK VINA RESULT:      -5.8      0.746      2.142
REMARK  10 active torsions:
REMARK  status: ('A' for Active; 'I' for Inactive)
REMARK    1  A    between atoms: P_1  and  O_5 
REMARK    2  A    between atoms: O_5  and  C_23 
REMARK    3  A    between atoms: N_16  and  C_25 
REMARK    4  A    between atoms: N_17  and  C_28 
REMARK    5  A    between atoms: N_17  and  C_30 
REMARK    6  A    between atoms: C_21  and  C_23 
REMARK    7  A    between atoms: C_25  and  C_26 
REMARK    8  A    between atoms: C_26  and  C_27 
REMARK    9  A    between atoms: C_27  and  C_28 
REMARK   10  A    between atoms: C_28  and  C_29 
ROOT
HETATM    1  O   UNL A   1       8.666   0.641  23.007  1.00  0.00    -0.327 OA
HETATM    2  O   UNL A   1      10.192   2.843  20.619  1.00  0.00    -0.215 OA
HETATM    3  O   UNL A   1      11.105   2.460  23.167  1.00  0.00    -0.218 OA
HETATM    4  O   UNL A   1      11.150  -0.026  21.518  1.00  0.00    -0.267 OA
HETATM    5  O   UNL A   1       7.334  -0.853  19.081  1.00  0.00    -0.245 OA
HETATM    6  N   UNL A   1       7.811   0.625  20.819  1.00  0.00    -0.183 NA
HETATM    7  N   UNL A   1       9.451  -0.683  20.064  1.00  0.00    -0.248 N 
HETATM    8  C   UNL A   1       8.933   0.987  21.649  1.00  0.00     0.284 A 
HETATM    9  C   UNL A   1       9.248   2.475  21.602  1.00  0.00     0.240 C 
HETATM   10  C   UNL A   1       9.721   2.766  23.013  1.00  0.00     0.217 C 
HETATM   11  C   UNL A   1       8.889   1.795  23.845  1.00  0.00     0.181 C 
HETATM   12  C   UNL A   1      10.007   0.051  21.090  1.00  0.00     0.290 A 
HETATM   13  C   UNL A   1       8.118  -0.367  19.887  1.00  0.00     0.350 A 
ENDROOT
BRANCH  11  14
HETATM   14  C   UNL A   1       7.532   2.361  24.244  1.00  0.00     0.188 C 
BRANCH  14  15
HETATM   15  O   UNL A   1       6.609   1.290  24.351  1.00  0.00    -0.261 OA
BRANCH  15  16
HETATM   16  P   UNL A   1       5.513   1.332  25.542  1.00  0.00     0.423 P 
HETATM   17  O   UNL A   1       4.113   1.445  24.741  1.00  0.00    -0.617 OA
HETATM   18  O   UNL A   1       5.499  -0.183  26.105  1.00  0.00    -0.617 OA
HETATM   19  O   UNL A   1       5.741   2.398  26.574  1.00  0.00    -0.617 OA
ENDBRANCH  15  16
ENDBRANCH  14  15
ENDBRANCH  11  14
BRANCH   7  20
HETATM   20  C   UNL A   1      10.175  -1.679  19.299  1.00  0.00     0.114 C 
BRANCH  20  21
HETATM   21  C   UNL A   1      10.574  -2.889  20.140  1.00  0.00     0.027 C 
BRANCH  21  22
HETATM   22  C   UNL A   1       9.370  -3.529  20.850  1.00  0.00     0.032 C 
BRANCH  22  23
HETATM   23  C   UNL A   1       9.738  -4.474  22.003  1.00  0.00     0.177 C 
BRANCH  23  24
HETATM   24  N   UNL A   1       9.109  -4.063  23.258  1.00  0.00    -0.091 NA
HETATM   25  O   UNL A   1      10.221  -3.652  24.098  1.00  0.00    -0.115 OA
BRANCH  24  26
HETATM   26  C   UNL A   1       8.311  -2.854  23.070  1.00  0.00     0.286 C 
HETATM   27  O   UNL A   1       7.800  -2.356  24.305  1.00  0.00    -0.198 OA
ENDBRANCH  24  26
ENDBRANCH  23  24
BRANCH  23  28
HETATM   28  C   UNL A   1       9.327  -5.908  21.717  1.00  0.00     0.203 C 
HETATM   29  O   UNL A   1       9.029  -6.588  22.855  1.00  0.00    -0.646 OA
HETATM   30  O   UNL A   1       9.264  -6.421  20.607  1.00  0.00    -0.646 OA
ENDBRANCH  23  28
ENDBRANCH  22  23
ENDBRANCH  21  22
ENDBRANCH  20  21
ENDBRANCH   7  20
TORSDOF 10
ENDMDL
MODEL 3
REMARK VINA RESULT:      -5.7      4.191      7.880
REMARK  10 active torsions:
REMARK  status: ('A' for Active; 'I' for Inactive)
REMARK    1  A    between atoms: P_1  and  O_5 
REMARK    2  A    between atoms: O_5  and  C_23 
REMARK    3  A    between atoms: N_16  and  C_25 
REMARK    4  A    between atoms: N_17  and  C_28 
REMARK    5  A    between atoms: N_17  and  C_30 
REMARK    6  A    between atoms: C_21  and  C_23 
REMARK    7  A    between atoms: C_25  and  C_26 
REMARK    8  A    between atoms: C_26  and  C_27 
REMARK    9  A    between atoms: C_27  and  C_28 
REMARK   10  A    between atoms: C_28  and  C_29 
ROOT
HETATM    1  O   UNL A   1       8.007   2.176  22.303  1.00  0.00    -0.327 OA
HETATM    2  O   UNL A   1      11.440   1.162  22.045  1.00  0.00    -0.215 OA
HETATM    3  O   UNL A   1       9.347  -0.173  20.900  1.00  0.00    -0.218 OA
HETATM    4  O   UNL A   1       9.666   2.612  19.876  1.00  0.00    -0.267 OA
HETATM    5  O   UNL A   1      10.329   5.838  23.091  1.00  0.00    -0.245 OA
HETATM    6  N   UNL A   1       9.632   3.617  23.200  1.00  0.00    -0.183 NA
HETATM    7  N   UNL A   1      10.149   4.466  21.205  1.00  0.00    -0.248 N 
HETATM    8  C   UNL A   1       9.393   2.516  22.300  1.00  0.00     0.284 A 
HETATM    9  C   UNL A   1      10.178   1.267  22.670  1.00  0.00     0.240 C 
HETATM   10  C   UNL A   1       9.234   0.145  22.285  1.00  0.00     0.217 C 
HETATM   11  C   UNL A   1       7.865   0.762  22.555  1.00  0.00     0.181 C 
HETATM   12  C   UNL A   1       9.750   3.168  20.962  1.00  0.00     0.290 A 
HETATM   13  C   UNL A   1      10.072   4.770  22.549  1.00  0.00     0.350 A 
ENDROOT
BRANCH  11  14
HETATM   14  C   UNL A   1       7.401   0.581  23.995  1.00  0.00     0.188 C 
BRANCH  14  15
HETATM   15  O   UNL A   1       6.623   1.706  24.365  1.00  0.00    -0.261 OA
BRANCH  15  16
HETATM   16  P   UNL A   1       5.523   1.532  25.540  1.00  0.00     0.423 P 
HETATM   17  O   UNL A   1       4.126   1.510  24.727  1.00  0.00    -0.617 OA
HETATM   18  O   UNL A   1       5.704  -0.004  26.011  1.00  0.00    -0.617 OA
HETATM   19  O   UNL A   1       5.602   2.553  26.637  1.00  0.00    -0.617 OA
ENDBRANCH  15  16
ENDBRANCH  14  15
ENDBRANCH  11  14
BRANCH   7  20
HETATM   20  C   UNL A   1      10.559   5.391  20.167  1.00  0.00     0.114 C 
BRANCH  20  21
HETATM   21  C   UNL A   1      12.074   5.444  19.992  1.00  0.00     0.027 C 
BRANCH  21  22
HETATM   22  C   UNL A   1      12.703   6.651  20.707  1.00  0.00     0.032 C 
BRANCH  22  23
HETATM   23  C   UNL A   1      14.035   6.353  21.410  1.00  0.00     0.177 C 
BRANCH  23  24
HETATM   24  N   UNL A   1      14.944   7.497  21.349  1.00  0.00    -0.091 NA
HETATM   25  O   UNL A   1      16.268   6.901  21.288  1.00  0.00    -0.115 OA
BRANCH  24  26
HETATM   26  C   UNL A   1      14.794   8.216  20.087  1.00  0.00     0.286 C 
HETATM   27  O   UNL A   1      15.362   9.523  20.148  1.00  0.00    -0.198 OA
ENDBRANCH  24  26
ENDBRANCH  23  24
BRANCH  23  28
HETATM   28  C   UNL A   1      13.838   5.983  22.869  1.00  0.00     0.203 C 
HETATM   29  O   UNL A   1      13.914   7.069  23.683  1.00  0.00    -0.646 OA
HETATM   30  O   UNL A   1      13.635   4.853  23.296  1.00  0.00    -0.646 OA
ENDBRANCH  23  28
ENDBRANCH  22  23
ENDBRANCH  21  22
ENDBRANCH  20  21
ENDBRANCH   7  20
TORSDOF 10
ENDMDL
MODEL 4
REMARK VINA RESULT:      -5.7      3.004      4.963
REMARK  10 active torsions:
REMARK  status: ('A' for Active; 'I' for Inactive)
REMARK    1  A    between atoms: P_1  and  O_5 
REMARK    2  A    between atoms: O_5  and  C_23 
REMARK    3  A    between atoms: N_16  and  C_25 
REMARK    4  A    between atoms: N_17  and  C_28 
REMARK    5  A    between atoms: N_17  and  C_30 
REMARK    6  A    between atoms: C_21  and  C_23 
REMARK    7  A    between atoms: C_25  and  C_26 
REMARK    8  A    between atoms: C_26  and  C_27 
REMARK    9  A    between atoms: C_27  and  C_28 
REMARK   10  A    between atoms: C_28  and  C_29 
ROOT
HETATM    1  O   UNL A   1      10.015   0.649  20.916  1.00  0.00    -0.327 OA
HETATM    2  O   UNL A   1       7.098  -0.315  19.060  1.00  0.00    -0.215 OA
HETATM    3  O   UNL A   1       9.641  -0.336  18.057  1.00  0.00    -0.218 OA
HETATM    4  O   UNL A   1       9.278  -2.178  20.376  1.00  0.00    -0.267 OA
HETATM    5  O   UNL A   1       7.027  -0.405  23.978  1.00  0.00    -0.245 OA
HETATM    6  N   UNL A   1       7.975   0.554  22.078  1.00  0.00    -0.183 NA
HETATM    7  N   UNL A   1       8.074  -1.661  22.305  1.00  0.00    -0.248 N 
HETATM    8  C   UNL A   1       8.685   0.132  20.896  1.00  0.00     0.284 A 
HETATM    9  C   UNL A   1       8.024   0.600  19.609  1.00  0.00     0.240 C 
HETATM   10  C   UNL A   1       9.205   0.862  18.695  1.00  0.00     0.217 C 
HETATM   11  C   UNL A   1      10.276   1.337  19.673  1.00  0.00     0.181 C 
HETATM   12  C   UNL A   1       8.729  -1.380  21.123  1.00  0.00     0.290 A 
HETATM   13  C   UNL A   1       7.621  -0.506  22.912  1.00  0.00     0.350 A 
ENDROOT
BRANCH  11  14
HETATM   14  C   UNL A   1      10.221   2.835  19.939  1.00  0.00     0.188 C 
BRANCH  14  15
HETATM   15  O   UNL A   1      11.180   3.154  20.933  1.00  0.00    -0.261 OA
BRANCH  15  16
HETATM   16  P   UNL A   1      10.743   4.146  22.136  1.00  0.00     0.423 P 
HETATM   17  O   UNL A   1       9.824   3.198  23.070  1.00  0.00    -0.617 OA
HETATM   18  O   UNL A   1      12.098   4.320  23.001  1.00  0.00    -0.617 OA
HETATM   19  O   UNL A   1      10.093   5.425  21.697  1.00  0.00    -0.617 OA
ENDBRANCH  15  16
ENDBRANCH  14  15
ENDBRANCH  11  14
BRANCH   7  20
HETATM   20  C   UNL A   1       7.920  -2.997  22.845  1.00  0.00     0.114 C 
BRANCH  20  21
HETATM   21  C   UNL A   1       9.000  -3.346  23.866  1.00  0.00     0.027 C 
BRANCH  21  22
HETATM   22  C   UNL A   1       8.410  -3.711  25.238  1.00  0.00     0.032 C 
BRANCH  22  23
HETATM   23  C   UNL A   1       7.312  -4.785  25.195  1.00  0.00     0.177 C 
BRANCH  23  24
HETATM   24  N   UNL A   1       7.572  -5.859  26.152  1.00  0.00    -0.091 NA
HETATM   25  O   UNL A   1       7.701  -7.049  25.329  1.00  0.00    -0.115 OA
BRANCH  24  26
HETATM   26  C   UNL A   1       8.879  -5.691  26.783  1.00  0.00     0.286 C 
HETATM   27  O   UNL A   1       9.051  -6.568  27.894  1.00  0.00    -0.198 OA
ENDBRANCH  24  26
ENDBRANCH  23  24
BRANCH  23  28
HETATM   28  C   UNL A   1       5.940  -4.207  25.493  1.00  0.00     0.203 C 
HETATM   29  O   UNL A   1       5.996  -2.875  25.756  1.00  0.00    -0.646 OA
HETATM   30  O   UNL A   1       4.891  -4.838  25.508  1.00  0.00    -0.646 OA
ENDBRANCH  23  28
ENDBRANCH  22  23
ENDBRANCH  21  22
ENDBRANCH  20  21
ENDBRANCH   7  20
TORSDOF 10
ENDMDL
MODEL 5
REMARK VINA RESULT:      -5.6      3.546      6.994
REMARK  10 active torsions:
REMARK  status: ('A' for Active; 'I' for Inactive)
REMARK    1  A    between atoms: P_1  and  O_5 
REMARK    2  A    between atoms: O_5  and  C_23 
REMARK    3  A    between atoms: N_16  and  C_25 
REMARK    4  A    between atoms: N_17  and  C_28 
REMARK    5  A    between atoms: N_17  and  C_30 
REMARK    6  A    between atoms: C_21  and  C_23 
REMARK    7  A    between atoms: C_25  and  C_26 
REMARK    8  A    between atoms: C_26  and  C_27 
REMARK    9  A    between atoms: C_27  and  C_28 
REMARK   10  A    between atoms: C_28  and  C_29 
ROOT
HETATM    1  O   UNL A   1       9.275   2.849  22.708  1.00  0.00    -0.327 OA
HETATM    2  O   UNL A   1      10.216  -0.489  21.784  1.00  0.00    -0.215 OA
HETATM    3  O   UNL A   1       8.077   0.856  20.740  1.00  0.00    -0.218 OA
HETATM    4  O   UNL A   1      10.688   2.186  20.178  1.00  0.00    -0.267 OA
HETATM    5  O   UNL A   1      13.540   2.543  23.773  1.00  0.00    -0.245 OA
HETATM    6  N   UNL A   1      11.280   2.004  23.595  1.00  0.00    -0.183 NA
HETATM    7  N   UNL A   1      12.418   2.416  21.724  1.00  0.00    -0.248 N 
HETATM    8  C   UNL A   1      10.286   1.852  22.563  1.00  0.00     0.284 A 
HETATM    9  C   UNL A   1       9.604   0.492  22.594  1.00  0.00     0.240 C 
HETATM   10  C   UNL A   1       8.186   0.813  22.161  1.00  0.00     0.217 C 
HETATM   11  C   UNL A   1       7.979   2.214  22.730  1.00  0.00     0.181 C 
HETATM   12  C   UNL A   1      11.124   2.159  21.321  1.00  0.00     0.290 A 
HETATM   13  C   UNL A   1      12.538   2.345  23.097  1.00  0.00     0.350 A 
ENDROOT
BRANCH  11  14
HETATM   14  C   UNL A   1       7.478   2.207  24.168  1.00  0.00     0.188 C 
BRANCH  14  15
HETATM   15  O   UNL A   1       6.691   1.046  24.368  1.00  0.00    -0.261 OA
BRANCH  15  16
HETATM   16  P   UNL A   1       5.415   1.139  25.361  1.00  0.00     0.423 P 
HETATM   17  O   UNL A   1       5.430  -0.296  26.105  1.00  0.00    -0.617 OA
HETATM   18  O   UNL A   1       5.900   2.163  26.514  1.00  0.00    -0.617 OA
HETATM   19  O   UNL A   1       4.118   1.493  24.692  1.00  0.00    -0.617 OA
ENDBRANCH  15  16
ENDBRANCH  14  15
ENDBRANCH  11  14
BRANCH   7  20
HETATM   20  C   UNL A   1      13.495   2.752  20.814  1.00  0.00     0.114 C 
BRANCH  20  21
HETATM   21  C   UNL A   1      13.889   4.225  20.886  1.00  0.00     0.027 C 
BRANCH  21  22
HETATM   22  C   UNL A   1      12.916   5.127  20.111  1.00  0.00     0.032 C 
BRANCH  22  23
HETATM   23  C   UNL A   1      12.270   6.239  20.951  1.00  0.00     0.177 C 
BRANCH  23  24
HETATM   24  N   UNL A   1      10.847   5.986  21.177  1.00  0.00    -0.091 NA
HETATM   25  O   UNL A   1      10.250   7.309  21.223  1.00  0.00    -0.115 OA
BRANCH  24  26
HETATM   26  C   UNL A   1      10.242   5.337  20.017  1.00  0.00     0.286 C 
HETATM   27  O   UNL A   1       9.300   6.186  19.363  1.00  0.00    -0.198 OA
ENDBRANCH  24  26
ENDBRANCH  23  24
BRANCH  23  28
HETATM   28  C   UNL A   1      12.943   6.393  22.303  1.00  0.00     0.203 C 
HETATM   29  O   UNL A   1      12.263   5.746  23.286  1.00  0.00    -0.646 OA
HETATM   30  O   UNL A   1      13.973   7.020  22.518  1.00  0.00    -0.646 OA
ENDBRANCH  23  28
ENDBRANCH  22  23
ENDBRANCH  21  22
ENDBRANCH  20  21
ENDBRANCH   7  20
TORSDOF 10
ENDMDL
MODEL 6
REMARK VINA RESULT:      -5.6      3.471      7.208
REMARK  10 active torsions:
REMARK  status: ('A' for Active; 'I' for Inactive)
REMARK    1  A    between atoms: P_1  and  O_5 
REMARK    2  A    between atoms: O_5  and  C_23 
REMARK    3  A    between atoms: N_16  and  C_25 
REMARK    4  A    between atoms: N_17  and  C_28 
REMARK    5  A    between atoms: N_17  and  C_30 
REMARK    6  A    between atoms: C_21  and  C_23 
REMARK    7  A    between atoms: C_25  and  C_26 
REMARK    8  A    between atoms: C_26  and  C_27 
REMARK    9  A    between atoms: C_27  and  C_28 
REMARK   10  A    between atoms: C_28  and  C_29 
ROOT
HETATM    1  O   UNL A   1       8.952   1.902  22.542  1.00  0.00    -0.327 OA
HETATM    2  O   UNL A   1      10.559  -1.058  21.304  1.00  0.00    -0.215 OA
HETATM    3  O   UNL A   1       8.185  -0.083  20.363  1.00  0.00    -0.218 OA
HETATM    4  O   UNL A   1      10.463   1.807  19.985  1.00  0.00    -0.267 OA
HETATM    5  O   UNL A   1      13.192   2.372  23.648  1.00  0.00    -0.245 OA
HETATM    6  N   UNL A   1      11.091   1.402  23.376  1.00  0.00    -0.183 NA
HETATM    7  N   UNL A   1      12.113   2.228  21.577  1.00  0.00    -0.248 N 
HETATM    8  C   UNL A   1      10.146   1.154  22.316  1.00  0.00     0.284 A 
HETATM    9  C   UNL A   1       9.760  -0.312  22.198  1.00  0.00     0.240 C 
HETATM   10  C   UNL A   1       8.305  -0.248  21.773  1.00  0.00     0.217 C 
HETATM   11  C   UNL A   1       7.815   1.015  22.477  1.00  0.00     0.181 C 
HETATM   12  C   UNL A   1      10.900   1.753  21.127  1.00  0.00     0.290 A 
HETATM   13  C   UNL A   1      12.250   2.042  22.938  1.00  0.00     0.350 A 
ENDROOT
BRANCH  11  14
HETATM   14  C   UNL A   1       7.331   0.758  23.898  1.00  0.00     0.188 C 
BRANCH  14  15
HETATM   15  O   UNL A   1       6.470   1.817  24.281  1.00  0.00    -0.261 OA
BRANCH  15  16
HETATM   16  P   UNL A   1       5.422   1.561  25.489  1.00  0.00     0.423 P 
HETATM   17  O   UNL A   1       3.997   1.519  24.728  1.00  0.00    -0.617 OA
HETATM   18  O   UNL A   1       5.674   0.016  25.895  1.00  0.00    -0.617 OA
HETATM   19  O   UNL A   1       5.508   2.544  26.620  1.00  0.00    -0.617 OA
ENDBRANCH  15  16
ENDBRANCH  14  15
ENDBRANCH  11  14
BRANCH   7  20
HETATM   20  C   UNL A   1      13.096   2.869  20.725  1.00  0.00     0.114 C 
BRANCH  20  21
HETATM   21  C   UNL A   1      12.719   4.306  20.372  1.00  0.00     0.027 C 
BRANCH  21  22
HETATM   22  C   UNL A   1      13.345   5.327  21.337  1.00  0.00     0.032 C 
BRANCH  22  23
HETATM   23  C   UNL A   1      12.477   5.665  22.558  1.00  0.00     0.177 C 
BRANCH  23  24
HETATM   24  N   UNL A   1      12.958   6.863  23.246  1.00  0.00    -0.091 NA
HETATM   25  O   UNL A   1      13.413   6.377  24.537  1.00  0.00    -0.115 OA
BRANCH  24  26
HETATM   26  C   UNL A   1      14.155   7.391  22.597  1.00  0.00     0.286 C 
HETATM   27  O   UNL A   1      15.256   7.476  23.499  1.00  0.00    -0.198 OA
ENDBRANCH  24  26
ENDBRANCH  23  24
BRANCH  23  28
HETATM   28  C   UNL A   1      11.024   5.890  22.178  1.00  0.00     0.203 C 
HETATM   29  O   UNL A   1      10.202   4.971  22.749  1.00  0.00    -0.646 OA
HETATM   30  O   UNL A   1      10.610   6.779  21.445  1.00  0.00    -0.646 OA
ENDBRANCH  23  28
ENDBRANCH  22  23
ENDBRANCH  21  22
ENDBRANCH  20  21
ENDBRANCH   7  20
TORSDOF 10
ENDMDL
MODEL 7
REMARK VINA RESULT:      -5.6      3.273      5.172
REMARK  10 active torsions:
REMARK  status: ('A' for Active; 'I' for Inactive)
REMARK    1  A    between atoms: P_1  and  O_5 
REMARK    2  A    between atoms: O_5  and  C_23 
REMARK    3  A    between atoms: N_16  and  C_25 
REMARK    4  A    between atoms: N_17  and  C_28 
REMARK    5  A    between atoms: N_17  and  C_30 
REMARK    6  A    between atoms: C_21  and  C_23 
REMARK    7  A    between atoms: C_25  and  C_26 
REMARK    8  A    between atoms: C_26  and  C_27 
REMARK    9  A    between atoms: C_27  and  C_28 
REMARK   10  A    between atoms: C_28  and  C_29 
ROOT
HETATM    1  O   UNL A   1      10.021   0.583  22.497  1.00  0.00    -0.327 OA
HETATM    2  O   UNL A   1       7.308  -0.020  20.225  1.00  0.00    -0.215 OA
HETATM    3  O   UNL A   1       9.952  -0.134  19.537  1.00  0.00    -0.218 OA
HETATM    4  O   UNL A   1       9.193  -2.133  21.619  1.00  0.00    -0.267 OA
HETATM    5  O   UNL A   1       6.615  -0.513  25.070  1.00  0.00    -0.245 OA
HETATM    6  N   UNL A   1       7.849   0.533  23.392  1.00  0.00    -0.183 NA
HETATM    7  N   UNL A   1       7.789  -1.695  23.428  1.00  0.00    -0.248 N 
HETATM    8  C   UNL A   1       8.676   0.162  22.272  1.00  0.00     0.284 A 
HETATM    9  C   UNL A   1       8.210   0.780  20.962  1.00  0.00     0.240 C 
HETATM   10  C   UNL A   1       9.510   1.034  20.224  1.00  0.00     0.217 C 
HETATM   11  C   UNL A   1      10.476   1.351  21.362  1.00  0.00     0.181 C 
HETATM   12  C   UNL A   1       8.602  -1.364  22.364  1.00  0.00     0.290 A 
HETATM   13  C   UNL A   1       7.332  -0.566  24.078  1.00  0.00     0.350 A 
ENDROOT
BRANCH  11  14
HETATM   14  C   UNL A   1      10.476   2.822  21.755  1.00  0.00     0.188 C 
BRANCH  14  15
HETATM   15  O   UNL A   1      10.240   3.601  20.594  1.00  0.00    -0.261 OA
BRANCH  15  16
HETATM   16  P   UNL A   1      10.319   5.213  20.716  1.00  0.00     0.423 P 
HETATM   17  O   UNL A   1      11.815   5.542  20.201  1.00  0.00    -0.617 OA
HETATM   18  O   UNL A   1       9.384   5.737  19.505  1.00  0.00    -0.617 OA
HETATM   19  O   UNL A   1       9.981   5.762  22.072  1.00  0.00    -0.617 OA
ENDBRANCH  15  16
ENDBRANCH  14  15
ENDBRANCH  11  14
BRANCH   7  20
HETATM   20  C   UNL A   1       7.491  -3.057  23.822  1.00  0.00     0.114 C 
BRANCH  20  21
HETATM   21  C   UNL A   1       8.429  -3.574  24.910  1.00  0.00     0.027 C 
BRANCH  21  22
HETATM   22  C   UNL A   1       7.777  -4.666  25.773  1.00  0.00     0.032 C 
BRANCH  22  23
HETATM   23  C   UNL A   1       6.901  -5.657  24.992  1.00  0.00     0.177 C 
BRANCH  23  24
HETATM   24  N   UNL A   1       7.478  -7.002  24.992  1.00  0.00    -0.091 NA
HETATM   25  O   UNL A   1       8.199  -7.082  23.733  1.00  0.00    -0.115 OA
BRANCH  24  26
HETATM   26  C   UNL A   1       8.504  -7.129  26.024  1.00  0.00     0.286 C 
HETATM   27  O   UNL A   1       9.771  -7.483  25.475  1.00  0.00    -0.198 OA
ENDBRANCH  24  26
ENDBRANCH  23  24
BRANCH  23  28
HETATM   28  C   UNL A   1       5.497  -5.746  25.562  1.00  0.00     0.203 C 
HETATM   29  O   UNL A   1       5.042  -4.536  25.981  1.00  0.00    -0.646 OA
HETATM   30  O   UNL A   1       4.828  -6.768  25.651  1.00  0.00    -0.646 OA
ENDBRANCH  23  28
ENDBRANCH  22  23
ENDBRANCH  21  22
ENDBRANCH  20  21
ENDBRANCH   7  20
TORSDOF 10
ENDMDL
MODEL 8
REMARK VINA RESULT:      -5.4      4.855      8.482
REMARK  10 active torsions:
REMARK  status: ('A' for Active; 'I' for Inactive)
REMARK    1  A    between atoms: P_1  and  O_5 
REMARK    2  A    between atoms: O_5  and  C_23 
REMARK    3  A    between atoms: N_16  and  C_25 
REMARK    4  A    between atoms: N_17  and  C_28 
REMARK    5  A    between atoms: N_17  and  C_30 
REMARK    6  A    between atoms: C_21  and  C_23 
REMARK    7  A    between atoms: C_25  and  C_26 
REMARK    8  A    between atoms: C_26  and  C_27 
REMARK    9  A    between atoms: C_27  and  C_28 
REMARK   10  A    between atoms: C_28  and  C_29 
ROOT
HETATM    1  O   UNL A   1       8.958   3.170  22.400  1.00  0.00    -0.327 OA
HETATM    2  O   UNL A   1      10.764   0.189  21.541  1.00  0.00    -0.215 OA
HETATM    3  O   UNL A   1       8.242   0.771  20.663  1.00  0.00    -0.218 OA
HETATM    4  O   UNL A   1      10.283   2.757  19.772  1.00  0.00    -0.267 OA
HETATM    5  O   UNL A   1      13.196   4.197  23.031  1.00  0.00    -0.245 OA
HETATM    6  N   UNL A   1      11.191   3.013  23.114  1.00  0.00    -0.183 NA
HETATM    7  N   UNL A   1      11.992   3.596  21.117  1.00  0.00    -0.248 N 
HETATM    8  C   UNL A   1      10.202   2.501  22.198  1.00  0.00     0.284 A 
HETATM    9  C   UNL A   1       9.960   1.008  22.364  1.00  0.00     0.240 C 
HETATM   10  C   UNL A   1       8.479   0.870  22.065  1.00  0.00     0.217 C 
HETATM   11  C   UNL A   1       7.915   2.188  22.586  1.00  0.00     0.181 C 
HETATM   12  C   UNL A   1      10.803   2.944  20.863  1.00  0.00     0.290 A 
HETATM   13  C   UNL A   1      12.244   3.666  22.473  1.00  0.00     0.350 A 
ENDROOT
BRANCH  11  14
HETATM   14  C   UNL A   1       7.563   2.145  24.067  1.00  0.00     0.188 C 
BRANCH  14  15
HETATM   15  O   UNL A   1       6.580   1.144  24.270  1.00  0.00    -0.261 OA
BRANCH  15  16
HETATM   16  P   UNL A   1       5.519   1.338  25.477  1.00  0.00     0.423 P 
HETATM   17  O   UNL A   1       4.121   1.564  24.697  1.00  0.00    -0.617 OA
HETATM   18  O   UNL A   1       5.365  -0.149  26.095  1.00  0.00    -0.617 OA
HETATM   19  O   UNL A   1       5.874   2.410  26.466  1.00  0.00    -0.617 OA
ENDBRANCH  15  16
ENDBRANCH  14  15
ENDBRANCH  11  14
BRANCH   7  20
HETATM   20  C   UNL A   1      12.840   4.160  20.086  1.00  0.00     0.114 C 
BRANCH  20  21
HETATM   21  C   UNL A   1      12.549   5.636  19.828  1.00  0.00     0.027 C 
BRANCH  21  22
HETATM   22  C   UNL A   1      13.833   6.475  19.727  1.00  0.00     0.032 C 
BRANCH  22  23
HETATM   23  C   UNL A   1      14.145   6.997  18.316  1.00  0.00     0.177 C 
BRANCH  23  24
HETATM   24  N   UNL A   1      14.921   8.235  18.359  1.00  0.00    -0.091 NA
HETATM   25  O   UNL A   1      14.223   9.128  17.451  1.00  0.00    -0.115 OA
BRANCH  24  26
HETATM   26  C   UNL A   1      14.818   8.871  19.670  1.00  0.00     0.286 C 
HETATM   27  O   UNL A   1      15.665  10.013  19.777  1.00  0.00    -0.198 OA
ENDBRANCH  24  26
ENDBRANCH  23  24
BRANCH  23  28
HETATM   28  C   UNL A   1      14.918   5.982  17.493  1.00  0.00     0.203 C 
HETATM   29  O   UNL A   1      14.526   5.978  16.192  1.00  0.00    -0.646 OA
HETATM   30  O   UNL A   1      15.793   5.239  17.919  1.00  0.00    -0.646 OA
ENDBRANCH  23  28
ENDBRANCH  22  23
ENDBRANCH  21  22
ENDBRANCH  20  21
ENDBRANCH   7  20
TORSDOF 10
ENDMDL
MODEL 9
REMARK VINA RESULT:      -5.4      4.526      8.338
REMARK  10 active torsions:
REMARK  status: ('A' for Active; 'I' for Inactive)
REMARK    1  A    between atoms: P_1  and  O_5 
REMARK    2  A    between atoms: O_5  and  C_23 
REMARK    3  A    between atoms: N_16  and  C_25 
REMARK    4  A    between atoms: N_17  and  C_28 
REMARK    5  A    between atoms: N_17  and  C_30 
REMARK    6  A    between atoms: C_21  and  C_23 
REMARK    7  A    between atoms: C_25  and  C_26 
REMARK    8  A    between atoms: C_26  and  C_27 
REMARK    9  A    between atoms: C_27  and  C_28 
REMARK   10  A    between atoms: C_28  and  C_29 
ROOT
HETATM    1  O   UNL A   1      10.779   2.808  20.247  1.00  0.00    -0.327 OA
HETATM    2  O   UNL A   1       8.774   2.757  23.223  1.00  0.00    -0.215 OA
HETATM    3  O   UNL A   1      10.320   0.670  22.368  1.00  0.00    -0.218 OA
HETATM    4  O   UNL A   1      11.898   3.127  22.981  1.00  0.00    -0.267 OA
HETATM    5  O   UNL A   1      10.190   7.050  21.285  1.00  0.00    -0.245 OA
HETATM    6  N   UNL A   1       9.713   4.807  20.869  1.00  0.00    -0.183 NA
HETATM    7  N   UNL A   1      11.260   5.292  22.399  1.00  0.00    -0.248 N 
HETATM    8  C   UNL A   1      10.152   3.510  21.319  1.00  0.00     0.284 A 
HETATM    9  C   UNL A   1       9.011   2.646  21.836  1.00  0.00     0.240 C 
HETATM   10  C   UNL A   1       9.428   1.248  21.419  1.00  0.00     0.217 C 
HETATM   11  C   UNL A   1      10.172   1.505  20.112  1.00  0.00     0.181 C 
HETATM   12  C   UNL A   1      11.211   3.915  22.346  1.00  0.00     0.290 A 
HETATM   13  C   UNL A   1      10.375   5.859  21.504  1.00  0.00     0.350 A 
ENDROOT
BRANCH  11  14
HETATM   14  C   UNL A   1       9.255   1.533  18.896  1.00  0.00     0.188 C 
BRANCH  14  15
HETATM   15  O   UNL A   1       9.401   0.313  18.190  1.00  0.00    -0.261 OA
BRANCH  15  16
HETATM   16  P   UNL A   1       8.229  -0.797  18.313  1.00  0.00     0.423 P 
HETATM   17  O   UNL A   1       8.788  -1.787  19.462  1.00  0.00    -0.617 OA
HETATM   18  O   UNL A   1       7.028  -0.006  19.053  1.00  0.00    -0.617 OA
HETATM   19  O   UNL A   1       7.856  -1.469  17.024  1.00  0.00    -0.617 OA
ENDBRANCH  15  16
ENDBRANCH  14  15
ENDBRANCH  11  14
BRANCH   7  20
HETATM   20  C   UNL A   1      12.156   6.036  23.262  1.00  0.00     0.114 C 
BRANCH  20  21
HETATM   21  C   UNL A   1      13.241   6.777  22.485  1.00  0.00     0.027 C 
BRANCH  21  22
HETATM   22  C   UNL A   1      14.398   5.853  22.071  1.00  0.00     0.032 C 
BRANCH  22  23
HETATM   23  C   UNL A   1      14.862   6.023  20.617  1.00  0.00     0.177 C 
BRANCH  23  24
HETATM   24  N   UNL A   1      15.941   5.095  20.284  1.00  0.00    -0.091 NA
HETATM   25  O   UNL A   1      16.528   5.646  19.075  1.00  0.00    -0.115 OA
BRANCH  24  26
HETATM   26  C   UNL A   1      17.006   5.153  21.282  1.00  0.00     0.286 C 
HETATM   27  O   UNL A   1      17.334   3.859  21.786  1.00  0.00    -0.198 OA
ENDBRANCH  24  26
ENDBRANCH  23  24
BRANCH  23  28
HETATM   28  C   UNL A   1      13.729   5.805  19.630  1.00  0.00     0.203 C 
HETATM   29  O   UNL A   1      13.355   4.500  19.567  1.00  0.00    -0.646 OA
HETATM   30  O   UNL A   1      13.196   6.676  18.954  1.00  0.00    -0.646 OA
ENDBRANCH  23  28
ENDBRANCH  22  23
ENDBRANCH  21  22
ENDBRANCH  20  21
ENDBRANCH   7  20
TORSDOF 10
ENDMDL
MODEL 10
REMARK VINA RESULT:      -5.4      1.518      2.303
REMARK  10 active torsions:
REMARK  status: ('A' for Active; 'I' for Inactive)
REMARK    1  A    between atoms: P_1  and  O_5 
REMARK    2  A    between atoms: O_5  and  C_23 
REMARK    3  A    between atoms: N_16  and  C_25 
REMARK    4  A    between atoms: N_17  and  C_28 
REMARK    5  A    between atoms: N_17  and  C_30 
REMARK    6  A    between atoms: C_21  and  C_23 
REMARK    7  A    between atoms: C_25  and  C_26 
REMARK    8  A    between atoms: C_26  and  C_27 
REMARK    9  A    between atoms: C_27  and  C_28 
REMARK   10  A    between atoms: C_28  and  C_29 
ROOT
HETATM    1  O   UNL A   1       8.635   0.604  22.834  1.00  0.00    -0.327 OA
HETATM    2  O   UNL A   1      10.058   2.989  20.561  1.00  0.00    -0.215 OA
HETATM    3  O   UNL A   1      11.053   2.445  23.049  1.00  0.00    -0.218 OA
HETATM    4  O   UNL A   1      11.081   0.080  21.230  1.00  0.00    -0.267 OA
HETATM    5  O   UNL A   1       7.204  -0.636  18.855  1.00  0.00    -0.245 OA
HETATM    6  N   UNL A   1       7.714   0.726  20.676  1.00  0.00    -0.183 NA
HETATM    7  N   UNL A   1       9.347  -0.501  19.784  1.00  0.00    -0.248 N 
HETATM    8  C   UNL A   1       8.856   1.047  21.496  1.00  0.00     0.284 A 
HETATM    9  C   UNL A   1       9.149   2.539  21.543  1.00  0.00     0.240 C 
HETATM   10  C   UNL A   1       9.661   2.740  22.957  1.00  0.00     0.217 C 
HETATM   11  C   UNL A   1       8.867   1.702  23.744  1.00  0.00     0.181 C 
HETATM   12  C   UNL A   1       9.924   0.169  20.843  1.00  0.00     0.290 A 
HETATM   13  C   UNL A   1       8.006  -0.195  19.669  1.00  0.00     0.350 A 
ENDROOT
BRANCH  11  14
HETATM   14  C   UNL A   1       7.515   2.217  24.220  1.00  0.00     0.188 C 
BRANCH  14  15
HETATM   15  O   UNL A   1       6.642   1.113  24.385  1.00  0.00    -0.261 OA
BRANCH  15  16
HETATM   16  P   UNL A   1       5.363   1.280  25.363  1.00  0.00     0.423 P 
HETATM   17  O   UNL A   1       5.334  -0.124  26.164  1.00  0.00    -0.617 OA
HETATM   18  O   UNL A   1       5.867   2.336  26.478  1.00  0.00    -0.617 OA
HETATM   19  O   UNL A   1       4.080   1.641  24.671  1.00  0.00    -0.617 OA
ENDBRANCH  15  16
ENDBRANCH  14  15
ENDBRANCH  11  14
BRANCH   7  20
HETATM   20  C   UNL A   1      10.061  -1.432  18.932  1.00  0.00     0.114 C 
BRANCH  20  21
HETATM   21  C   UNL A   1       9.740  -2.889  19.254  1.00  0.00     0.027 C 
BRANCH  21  22
HETATM   22  C   UNL A   1      10.627  -3.448  20.378  1.00  0.00     0.032 C 
BRANCH  22  23
HETATM   23  C   UNL A   1      11.470  -4.668  19.978  1.00  0.00     0.177 C 
BRANCH  23  24
HETATM   24  N   UNL A   1      10.658  -5.882  19.901  1.00  0.00    -0.091 NA
HETATM   25  O   UNL A   1      11.587  -6.955  20.210  1.00  0.00    -0.115 OA
BRANCH  24  26
HETATM   26  C   UNL A   1       9.668  -5.916  20.975  1.00  0.00     0.286 C 
HETATM   27  O   UNL A   1       8.750  -6.996  20.819  1.00  0.00    -0.198 OA
ENDBRANCH  24  26
ENDBRANCH  23  24
BRANCH  23  28
HETATM   28  C   UNL A   1      12.154  -4.471  18.636  1.00  0.00     0.203 C 
HETATM   29  O   UNL A   1      13.133  -3.531  18.699  1.00  0.00    -0.646 OA
HETATM   30  O   UNL A   1      11.879  -5.068  17.603  1.00  0.00    -0.646 OA
ENDBRANCH  23  28
ENDBRANCH  22  23
ENDBRANCH  21  22
ENDBRANCH  20  21
ENDBRANCH   7  20
TORSDOF 10
ENDMDL
MODEL 11
REMARK VINA RESULT:      -5.3      4.935      8.856
REMARK  10 active torsions:
REMARK  status: ('A' for Active; 'I' for Inactive)
REMARK    1  A    between atoms: P_1  and  O_5 
REMARK    2  A    between atoms: O_5  and  C_23 
REMARK    3  A    between atoms: N_16  and  C_25 
REMARK    4  A    between atoms: N_17  and  C_28 
REMARK    5  A    between atoms: N_17  and  C_30 
REMARK    6  A    between atoms: C_21  and  C_23 
REMARK    7  A    between atoms: C_25  and  C_26 
REMARK    8  A    between atoms: C_26  and  C_27 
REMARK    9  A    between atoms: C_27  and  C_28 
REMARK   10  A    between atoms: C_28  and  C_29 
ROOT
HETATM    1  O   UNL A   1      10.712   2.864  20.204  1.00  0.00    -0.327 OA
HETATM    2  O   UNL A   1       8.724   2.696  23.187  1.00  0.00    -0.215 OA
HETATM    3  O   UNL A   1      10.383   0.702  22.325  1.00  0.00    -0.218 OA
HETATM    4  O   UNL A   1      11.822   3.244  22.935  1.00  0.00    -0.267 OA
HETATM    5  O   UNL A   1       9.887   7.065  21.248  1.00  0.00    -0.245 OA
HETATM    6  N   UNL A   1       9.537   4.799  20.832  1.00  0.00    -0.183 NA
HETATM    7  N   UNL A   1      11.059   5.370  22.356  1.00  0.00    -0.248 N 
HETATM    8  C   UNL A   1      10.050   3.529  21.279  1.00  0.00     0.284 A 
HETATM    9  C   UNL A   1       8.962   2.600  21.799  1.00  0.00     0.240 C 
HETATM   10  C   UNL A   1       9.456   1.229  21.379  1.00  0.00     0.217 C 
HETATM   11  C   UNL A   1      10.180   1.529  20.070  1.00  0.00     0.181 C 
HETATM   12  C   UNL A   1      11.089   3.992  22.303  1.00  0.00     0.290 A 
HETATM   13  C   UNL A   1      10.140   5.886  21.465  1.00  0.00     0.350 A 
ENDROOT
BRANCH  11  14
HETATM   14  C   UNL A   1       9.258   1.505  18.858  1.00  0.00     0.188 C 
BRANCH  14  15
HETATM   15  O   UNL A   1       9.417   0.265  18.191  1.00  0.00    -0.261 OA
BRANCH  15  16
HETATM   16  P   UNL A   1       8.249  -0.847  18.340  1.00  0.00     0.423 P 
HETATM   17  O   UNL A   1       8.805  -1.800  19.522  1.00  0.00    -0.617 OA
HETATM   18  O   UNL A   1       7.039  -0.041  19.048  1.00  0.00    -0.617 OA
HETATM   19  O   UNL A   1       7.888  -1.559  17.069  1.00  0.00    -0.617 OA
ENDBRANCH  15  16
ENDBRANCH  14  15
ENDBRANCH  11  14
BRANCH   7  20
HETATM   20  C   UNL A   1      11.915   6.163  23.217  1.00  0.00     0.114 C 
BRANCH  20  21
HETATM   21  C   UNL A   1      13.253   6.501  22.566  1.00  0.00     0.027 C 
BRANCH  21  22
HETATM   22  C   UNL A   1      14.294   6.985  23.588  1.00  0.00     0.032 C 
BRANCH  22  23
HETATM   23  C   UNL A   1      15.720   6.470  23.340  1.00  0.00     0.177 C 
BRANCH  23  24
HETATM   24  N   UNL A   1      16.467   6.328  24.589  1.00  0.00    -0.091 NA
HETATM   25  O   UNL A   1      17.856   6.260  24.170  1.00  0.00    -0.115 OA
BRANCH  24  26
HETATM   26  C   UNL A   1      16.373   7.544  25.393  1.00  0.00     0.286 C 
HETATM   27  O   UNL A   1      15.826   7.287  26.685  1.00  0.00    -0.198 OA
ENDBRANCH  24  26
ENDBRANCH  23  24
BRANCH  23  28
HETATM   28  C   UNL A   1      15.723   5.127  22.632  1.00  0.00     0.203 C 
HETATM   29  O   UNL A   1      15.341   4.117  23.457  1.00  0.00    -0.646 OA
HETATM   30  O   UNL A   1      16.031   4.940  21.462  1.00  0.00    -0.646 OA
ENDBRANCH  23  28
ENDBRANCH  22  23
ENDBRANCH  21  22
ENDBRANCH  20  21
ENDBRANCH   7  20
TORSDOF 10
ENDMDL
MODEL 12
REMARK VINA RESULT:      -5.2      3.055      5.259
REMARK  10 active torsions:
REMARK  status: ('A' for Active; 'I' for Inactive)
REMARK    1  A    between atoms: P_1  and  O_5 
REMARK    2  A    between atoms: O_5  and  C_23 
REMARK    3  A    between atoms: N_16  and  C_25 
REMARK    4  A    between atoms: N_17  and  C_28 
REMARK    5  A    between atoms: N_17  and  C_30 
REMARK    6  A    between atoms: C_21  and  C_23 
REMARK    7  A    between atoms: C_25  and  C_26 
REMARK    8  A    between atoms: C_26  and  C_27 
REMARK    9  A    between atoms: C_27  and  C_28 
REMARK   10  A    between atoms: C_28  and  C_29 
ROOT
HETATM    1  O   UNL A   1       9.973   0.802  20.998  1.00  0.00    -0.327 OA
HETATM    2  O   UNL A   1       7.052  -0.219  19.179  1.00  0.00    -0.215 OA
HETATM    3  O   UNL A   1       9.566  -0.085  18.112  1.00  0.00    -0.218 OA
HETATM    4  O   UNL A   1       9.347  -2.033  20.361  1.00  0.00    -0.267 OA
HETATM    5  O   UNL A   1       7.118  -0.509  24.088  1.00  0.00    -0.245 OA
HETATM    6  N   UNL A   1       7.971   0.568  22.206  1.00  0.00    -0.183 NA
HETATM    7  N   UNL A   1       8.174  -1.648  22.339  1.00  0.00    -0.248 N 
HETATM    8  C   UNL A   1       8.667   0.225  20.991  1.00  0.00     0.284 A 
HETATM    9  C   UNL A   1       7.951   0.714  19.741  1.00  0.00     0.240 C 
HETATM   10  C   UNL A   1       9.095   1.066  18.809  1.00  0.00     0.217 C 
HETATM   11  C   UNL A   1      10.170   1.549  19.778  1.00  0.00     0.181 C 
HETATM   12  C   UNL A   1       8.784  -1.291  21.154  1.00  0.00     0.290 A 
HETATM   13  C   UNL A   1       7.687  -0.541  23.004  1.00  0.00     0.350 A 
ENDROOT
BRANCH  11  14
HETATM   14  C   UNL A   1      10.056   3.032  20.107  1.00  0.00     0.188 C 
BRANCH  14  15
HETATM   15  O   UNL A   1      11.360   3.563  20.263  1.00  0.00    -0.261 OA
BRANCH  15  16
HETATM   16  P   UNL A   1      11.524   5.159  20.477  1.00  0.00     0.423 P 
HETATM   17  O   UNL A   1      10.106   5.741  19.962  1.00  0.00    -0.617 OA
HETATM   18  O   UNL A   1      11.441   5.342  22.081  1.00  0.00    -0.617 OA
HETATM   19  O   UNL A   1      12.732   5.765  19.824  1.00  0.00    -0.617 OA
ENDBRANCH  15  16
ENDBRANCH  14  15
ENDBRANCH  11  14
BRANCH   7  20
HETATM   20  C   UNL A   1       8.094  -3.010  22.828  1.00  0.00     0.114 C 
BRANCH  20  21
HETATM   21  C   UNL A   1       9.176  -3.330  23.857  1.00  0.00     0.027 C 
BRANCH  21  22
HETATM   22  C   UNL A   1       8.585  -3.758  25.210  1.00  0.00     0.032 C 
BRANCH  22  23
HETATM   23  C   UNL A   1       8.487  -5.278  25.411  1.00  0.00     0.177 C 
BRANCH  23  24
HETATM   24  N   UNL A   1       7.131  -5.768  25.166  1.00  0.00    -0.091 NA
HETATM   25  O   UNL A   1       7.039  -6.981  25.960  1.00  0.00    -0.115 OA
BRANCH  24  26
HETATM   26  C   UNL A   1       6.138  -4.863  25.740  1.00  0.00     0.286 C 
HETATM   27  O   UNL A   1       5.066  -4.606  24.835  1.00  0.00    -0.198 OA
ENDBRANCH  24  26
ENDBRANCH  23  24
BRANCH  23  28
HETATM   28  C   UNL A   1       9.435  -6.034  24.498  1.00  0.00     0.203 C 
HETATM   29  O   UNL A   1       8.812  -6.477  23.374  1.00  0.00    -0.646 OA
HETATM   30  O   UNL A   1      10.622  -6.241  24.718  1.00  0.00    -0.646 OA
ENDBRANCH  23  28
ENDBRANCH  22  23
ENDBRANCH  21  22
ENDBRANCH  20  21
ENDBRANCH   7  20
TORSDOF 10
ENDMDL
MODEL 13
REMARK VINA RESULT:      -5.1      4.171      6.778
REMARK  10 active torsions:
REMARK  status: ('A' for Active; 'I' for Inactive)
REMARK    1  A    between atoms: P_1  and  O_5 
REMARK    2  A    between atoms: O_5  and  C_23 
REMARK    3  A    between atoms: N_16  and  C_25 
REMARK    4  A    between atoms: N_17  and  C_28 
REMARK    5  A    between atoms: N_17  and  C_30 
REMARK    6  A    between atoms: C_21  and  C_23 
REMARK    7  A    between atoms: C_25  and  C_26 
REMARK    8  A    between atoms: C_26  and  C_27 
REMARK    9  A    between atoms: C_27  and  C_28 
REMARK   10  A    between atoms: C_28  and  C_29 
ROOT
HETATM    1  O   UNL A   1      11.836   4.550  20.431  1.00  0.00    -0.327 OA
HETATM    2  O   UNL A   1      10.319   6.036  23.324  1.00  0.00    -0.215 OA
HETATM    3  O   UNL A   1       9.569   6.560  20.748  1.00  0.00    -0.218 OA
HETATM    4  O   UNL A   1       9.204   3.701  21.518  1.00  0.00    -0.267 OA
HETATM    5  O   UNL A   1      12.753   1.781  23.734  1.00  0.00    -0.245 OA
HETATM    6  N   UNL A   1      12.524   3.767  22.536  1.00  0.00    -0.183 NA
HETATM    7  N   UNL A   1      10.734   2.458  22.763  1.00  0.00    -0.248 N 
HETATM    8  C   UNL A   1      11.499   4.479  21.815  1.00  0.00     0.284 A 
HETATM    9  C   UNL A   1      11.301   5.902  22.318  1.00  0.00     0.240 C 
HETATM   10  C   UNL A   1      10.958   6.665  21.053  1.00  0.00     0.217 C 
HETATM   11  C   UNL A   1      11.769   5.925  19.994  1.00  0.00     0.181 C 
HETATM   12  C   UNL A   1      10.316   3.527  21.999  1.00  0.00     0.290 A 
HETATM   13  C   UNL A   1      12.071   2.569  23.090  1.00  0.00     0.350 A 
ENDROOT
BRANCH  11  14
HETATM   14  C   UNL A   1      13.192   6.449  19.856  1.00  0.00     0.188 C 
BRANCH  14  15
HETATM   15  O   UNL A   1      13.412   7.431  20.855  1.00  0.00    -0.261 OA
BRANCH  15  16
HETATM   16  P   UNL A   1      14.793   7.380  21.698  1.00  0.00     0.423 P 
HETATM   17  O   UNL A   1      14.306   7.677  23.210  1.00  0.00    -0.617 OA
HETATM   18  O   UNL A   1      15.167   5.807  21.728  1.00  0.00    -0.617 OA
HETATM   19  O   UNL A   1      15.877   8.287  21.191  1.00  0.00    -0.617 OA
ENDBRANCH  15  16
ENDBRANCH  14  15
ENDBRANCH  11  14
BRANCH   7  20
HETATM   20  C   UNL A   1       9.879   1.349  23.137  1.00  0.00     0.114 C 
BRANCH  20  21
HETATM   21  C   UNL A   1      10.161   0.088  22.325  1.00  0.00     0.027 C 
BRANCH  21  22
HETATM   22  C   UNL A   1       9.580   0.167  20.904  1.00  0.00     0.032 C 
BRANCH  22  23
HETATM   23  C   UNL A   1       8.374  -0.751  20.656  1.00  0.00     0.177 C 
BRANCH  23  24
HETATM   24  N   UNL A   1       8.072  -0.871  19.230  1.00  0.00    -0.091 NA
HETATM   25  O   UNL A   1       6.965   0.046  19.020  1.00  0.00    -0.115 OA
BRANCH  24  26
HETATM   26  C   UNL A   1       9.164  -0.338  18.419  1.00  0.00     0.286 C 
HETATM   27  O   UNL A   1       9.578  -1.260  17.412  1.00  0.00    -0.198 OA
ENDBRANCH  24  26
ENDBRANCH  23  24
BRANCH  23  28
HETATM   28  C   UNL A   1       8.599  -2.147  21.210  1.00  0.00     0.203 C 
HETATM   29  O   UNL A   1       7.838  -2.385  22.310  1.00  0.00    -0.646 OA
HETATM   30  O   UNL A   1       9.368  -2.980  20.748  1.00  0.00    -0.646 OA
ENDBRANCH  23  28
ENDBRANCH  22  23
ENDBRANCH  21  22
ENDBRANCH  20  21
ENDBRANCH   7  20
TORSDOF 10
ENDMDL
MODEL 14
REMARK VINA RESULT:      -5.1      4.494      7.298
REMARK  10 active torsions:
REMARK  status: ('A' for Active; 'I' for Inactive)
REMARK    1  A    between atoms: P_1  and  O_5 
REMARK    2  A    between atoms: O_5  and  C_23 
REMARK    3  A    between atoms: N_16  and  C_25 
REMARK    4  A    between atoms: N_17  and  C_28 
REMARK    5  A    between atoms: N_17  and  C_30 
REMARK    6  A    between atoms: C_21  and  C_23 
REMARK    7  A    between atoms: C_25  and  C_26 
REMARK    8  A    between atoms: C_26  and  C_27 
REMARK    9  A    between atoms: C_27  and  C_28 
REMARK   10  A    between atoms: C_28  and  C_29 
ROOT
HETATM    1  O   UNL A   1      12.306   4.484  20.471  1.00  0.00    -0.327 OA
HETATM    2  O   UNL A   1      10.323   6.021  23.037  1.00  0.00    -0.215 OA
HETATM    3  O   UNL A   1       9.971   6.438  20.358  1.00  0.00    -0.218 OA
HETATM    4  O   UNL A   1       9.557   3.596  21.169  1.00  0.00    -0.267 OA
HETATM    5  O   UNL A   1      12.761   1.853  23.976  1.00  0.00    -0.245 OA
HETATM    6  N   UNL A   1      12.675   3.791  22.685  1.00  0.00    -0.183 NA
HETATM    7  N   UNL A   1      10.903   2.439  22.680  1.00  0.00    -0.248 N 
HETATM    8  C   UNL A   1      11.758   4.449  21.788  1.00  0.00     0.284 A 
HETATM    9  C   UNL A   1      11.452   5.881  22.201  1.00  0.00     0.240 C 
HETATM   10  C   UNL A   1      11.292   6.592  20.871  1.00  0.00     0.217 C 
HETATM   11  C   UNL A   1      12.275   5.841  19.978  1.00  0.00     0.181 C 
HETATM   12  C   UNL A   1      10.584   3.470  21.821  1.00  0.00     0.290 A 
HETATM   13  C   UNL A   1      12.169   2.600  23.206  1.00  0.00     0.350 A 
ENDROOT
BRANCH  11  14
HETATM   14  C   UNL A   1      13.690   6.401  20.043  1.00  0.00     0.188 C 
BRANCH  14  15
HETATM   15  O   UNL A   1      13.790   7.487  19.137  1.00  0.00    -0.261 OA
BRANCH  15  16
HETATM   16  P   UNL A   1      14.467   7.225  17.690  1.00  0.00     0.423 P 
HETATM   17  O   UNL A   1      13.633   8.210  16.717  1.00  0.00    -0.617 OA
HETATM   18  O   UNL A   1      15.909   7.947  17.804  1.00  0.00    -0.617 OA
HETATM   19  O   UNL A   1      14.501   5.788  17.258  1.00  0.00    -0.617 OA
ENDBRANCH  15  16
ENDBRANCH  14  15
ENDBRANCH  11  14
BRANCH   7  20
HETATM   20  C   UNL A   1      10.025   1.320  22.959  1.00  0.00     0.114 C 
BRANCH  20  21
HETATM   21  C   UNL A   1      10.380   0.078  22.145  1.00  0.00     0.027 C 
BRANCH  21  22
HETATM   22  C   UNL A   1       9.782   0.119  20.728  1.00  0.00     0.032 C 
BRANCH  22  23
HETATM   23  C   UNL A   1       8.401  -0.539  20.600  1.00  0.00     0.177 C 
BRANCH  23  24
HETATM   24  N   UNL A   1       8.098  -0.890  19.212  1.00  0.00    -0.091 NA
HETATM   25  O   UNL A   1       6.947  -0.070  18.878  1.00  0.00    -0.115 OA
BRANCH  24  26
HETATM   26  C   UNL A   1       9.159  -0.436  18.317  1.00  0.00     0.286 C 
HETATM   27  O   UNL A   1       9.682  -1.502  17.527  1.00  0.00    -0.198 OA
ENDBRANCH  24  26
ENDBRANCH  23  24
BRANCH  23  28
HETATM   28  C   UNL A   1       8.291  -1.799  21.440  1.00  0.00     0.203 C 
HETATM   29  O   UNL A   1       8.950  -2.845  20.876  1.00  0.00    -0.646 OA
HETATM   30  O   UNL A   1       7.688  -1.896  22.501  1.00  0.00    -0.646 OA
ENDBRANCH  23  28
ENDBRANCH  22  23
ENDBRANCH  21  22
ENDBRANCH  20  21
ENDBRANCH   7  20
TORSDOF 10
ENDMDL
MODEL 15
REMARK VINA RESULT:      -5.1      4.583      6.716
REMARK  10 active torsions:
REMARK  status: ('A' for Active; 'I' for Inactive)
REMARK    1  A    between atoms: P_1  and  O_5 
REMARK    2  A    between atoms: O_5  and  C_23 
REMARK    3  A    between atoms: N_16  and  C_25 
REMARK    4  A    between atoms: N_17  and  C_28 
REMARK    5  A    between atoms: N_17  and  C_30 
REMARK    6  A    between atoms: C_21  and  C_23 
REMARK    7  A    between atoms: C_25  and  C_26 
REMARK    8  A    between atoms: C_26  and  C_27 
REMARK    9  A    between atoms: C_27  and  C_28 
REMARK   10  A    between atoms: C_28  and  C_29 
ROOT
HETATM    1  O   UNL A   1      12.400   4.646  23.226  1.00  0.00    -0.327 OA
HETATM    2  O   UNL A   1      14.149   5.033  20.117  1.00  0.00    -0.215 OA
HETATM    3  O   UNL A   1      15.138   3.695  22.286  1.00  0.00    -0.218 OA
HETATM    4  O   UNL A   1      12.636   2.485  21.200  1.00  0.00    -0.267 OA
HETATM    5  O   UNL A   1       9.251   5.456  20.253  1.00  0.00    -0.245 OA
HETATM    6  N   UNL A   1      11.240   5.655  21.450  1.00  0.00    -0.183 NA
HETATM    7  N   UNL A   1      10.777   3.698  20.488  1.00  0.00    -0.248 N 
HETATM    8  C   UNL A   1      12.367   4.832  21.812  1.00  0.00     0.284 A 
HETATM    9  C   UNL A   1      13.699   5.436  21.393  1.00  0.00     0.240 C 
HETATM   10  C   UNL A   1      14.633   5.009  22.509  1.00  0.00     0.217 C 
HETATM   11  C   UNL A   1      13.709   5.001  23.723  1.00  0.00     0.181 C 
HETATM   12  C   UNL A   1      11.980   3.515  21.138  1.00  0.00     0.290 A 
HETATM   13  C   UNL A   1      10.298   4.980  20.673  1.00  0.00     0.350 A 
ENDROOT
BRANCH  11  14
HETATM   14  C   UNL A   1      13.605   6.359  24.405  1.00  0.00     0.188 C 
BRANCH  14  15
HETATM   15  O   UNL A   1      14.318   6.306  25.629  1.00  0.00    -0.261 OA
BRANCH  15  16
HETATM   16  P   UNL A   1      15.718   7.111  25.742  1.00  0.00     0.423 P 
HETATM   17  O   UNL A   1      16.791   6.053  25.156  1.00  0.00    -0.617 OA
HETATM   18  O   UNL A   1      15.616   8.225  24.575  1.00  0.00    -0.617 OA
HETATM   19  O   UNL A   1      16.035   7.641  27.110  1.00  0.00    -0.617 OA
ENDBRANCH  15  16
ENDBRANCH  14  15
ENDBRANCH  11  14
BRANCH   7  20
HETATM   20  C   UNL A   1      10.097   2.659  19.740  1.00  0.00     0.114 C 
BRANCH  20  21
HETATM   21  C   UNL A   1       9.267   1.740  20.632  1.00  0.00     0.027 C 
BRANCH  21  22
HETATM   22  C   UNL A   1       9.606   0.256  20.419  1.00  0.00     0.032 C 
BRANCH  22  23
HETATM   23  C   UNL A   1       8.385  -0.661  20.260  1.00  0.00     0.177 C 
BRANCH  23  24
HETATM   24  N   UNL A   1       8.439  -1.419  19.010  1.00  0.00    -0.091 NA
HETATM   25  O   UNL A   1       7.293  -0.946  18.253  1.00  0.00    -0.115 OA
BRANCH  24  26
HETATM   26  C   UNL A   1       9.603  -1.033  18.216  1.00  0.00     0.286 C 
HETATM   27  O   UNL A   1       9.645  -1.717  16.966  1.00  0.00    -0.198 OA
ENDBRANCH  24  26
ENDBRANCH  23  24
BRANCH  23  28
HETATM   28  C   UNL A   1       8.263  -1.649  21.407  1.00  0.00     0.203 C 
HETATM   29  O   UNL A   1       7.730  -1.074  22.517  1.00  0.00    -0.646 OA
HETATM   30  O   UNL A   1       8.597  -2.826  21.370  1.00  0.00    -0.646 OA
ENDBRANCH  23  28
ENDBRANCH  22  23
ENDBRANCH  21  22
ENDBRANCH  20  21
ENDBRANCH   7  20
TORSDOF 10
ENDMDL
MODEL 16
REMARK VINA RESULT:      -5.1      3.947      6.176
REMARK  10 active torsions:
REMARK  status: ('A' for Active; 'I' for Inactive)
REMARK    1  A    between atoms: P_1  and  O_5 
REMARK    2  A    between atoms: O_5  and  C_23 
REMARK    3  A    between atoms: N_16  and  C_25 
REMARK    4  A    between atoms: N_17  and  C_28 
REMARK    5  A    between atoms: N_17  and  C_30 
REMARK    6  A    between atoms: C_21  and  C_23 
REMARK    7  A    between atoms: C_25  and  C_26 
REMARK    8  A    between atoms: C_26  and  C_27 
REMARK    9  A    between atoms: C_27  and  C_28 
REMARK   10  A    between atoms: C_28  and  C_29 
ROOT
HETATM    1  O   UNL A   1      11.774   4.107  22.381  1.00  0.00    -0.327 OA
HETATM    2  O   UNL A   1       9.218   5.852  20.564  1.00  0.00    -0.215 OA
HETATM    3  O   UNL A   1      11.861   5.825  19.866  1.00  0.00    -0.218 OA
HETATM    4  O   UNL A   1      10.611   3.116  19.833  1.00  0.00    -0.267 OA
HETATM    5  O   UNL A   1       8.020   2.088  23.495  1.00  0.00    -0.245 OA
HETATM    6  N   UNL A   1       9.551   3.793  23.070  1.00  0.00    -0.183 NA
HETATM    7  N   UNL A   1       9.136   2.317  21.452  1.00  0.00    -0.248 N 
HETATM    8  C   UNL A   1      10.406   4.230  21.995  1.00  0.00     0.284 A 
HETATM    9  C   UNL A   1      10.164   5.678  21.598  1.00  0.00     0.240 C 
HETATM   10  C   UNL A   1      11.550   6.162  21.216  1.00  0.00     0.217 C 
HETATM   11  C   UNL A   1      12.446   5.366  22.160  1.00  0.00     0.181 C 
HETATM   12  C   UNL A   1      10.084   3.175  20.935  1.00  0.00     0.290 A 
HETATM   13  C   UNL A   1       8.806   2.658  22.748  1.00  0.00     0.350 A 
ENDROOT
BRANCH  11  14
HETATM   14  C   UNL A   1      12.643   6.043  23.510  1.00  0.00     0.188 C 
BRANCH  14  15
HETATM   15  O   UNL A   1      13.554   7.117  23.350  1.00  0.00    -0.261 OA
BRANCH  15  16
HETATM   16  P   UNL A   1      15.135   6.822  23.536  1.00  0.00     0.423 P 
HETATM   17  O   UNL A   1      15.772   7.383  22.160  1.00  0.00    -0.617 OA
HETATM   18  O   UNL A   1      15.602   7.913  24.635  1.00  0.00    -0.617 OA
HETATM   19  O   UNL A   1      15.480   5.398  23.860  1.00  0.00    -0.617 OA
ENDBRANCH  15  16
ENDBRANCH  14  15
ENDBRANCH  11  14
BRANCH   7  20
HETATM   20  C   UNL A   1       8.591   1.185  20.727  1.00  0.00     0.114 C 
BRANCH  20  21
HETATM   21  C   UNL A   1       9.483  -0.051  20.811  1.00  0.00     0.027 C 
BRANCH  21  22
HETATM   22  C   UNL A   1       8.955  -1.211  19.952  1.00  0.00     0.032 C 
BRANCH  22  23
HETATM   23  C   UNL A   1       9.937  -1.710  18.882  1.00  0.00     0.177 C 
BRANCH  23  24
HETATM   24  N   UNL A   1      10.283  -3.117  19.083  1.00  0.00    -0.091 NA
HETATM   25  O   UNL A   1      11.729  -3.113  19.230  1.00  0.00    -0.115 OA
BRANCH  24  26
HETATM   26  C   UNL A   1       9.774  -3.601  20.364  1.00  0.00     0.286 C 
HETATM   27  O   UNL A   1      10.821  -4.077  21.208  1.00  0.00    -0.198 OA
ENDBRANCH  24  26
ENDBRANCH  23  24
BRANCH  23  28
HETATM   28  C   UNL A   1       9.376  -1.558  17.479  1.00  0.00     0.203 C 
HETATM   29  O   UNL A   1      10.021  -2.352  16.585  1.00  0.00    -0.646 OA
HETATM   30  O   UNL A   1       8.457  -0.816  17.157  1.00  0.00    -0.646 OA
ENDBRANCH  23  28
ENDBRANCH  22  23
ENDBRANCH  21  22
ENDBRANCH  20  21
ENDBRANCH   7  20
TORSDOF 10
ENDMDL
MODEL 17
REMARK VINA RESULT:      -4.9      3.615      8.006
REMARK  10 active torsions:
REMARK  status: ('A' for Active; 'I' for Inactive)
REMARK    1  A    between atoms: P_1  and  O_5 
REMARK    2  A    between atoms: O_5  and  C_23 
REMARK    3  A    between atoms: N_16  and  C_25 
REMARK    4  A    between atoms: N_17  and  C_28 
REMARK    5  A    between atoms: N_17  and  C_30 
REMARK    6  A    between atoms: C_21  and  C_23 
REMARK    7  A    between atoms: C_25  and  C_26 
REMARK    8  A    between atoms: C_26  and  C_27 
REMARK    9  A    between atoms: C_27  and  C_28 
REMARK   10  A    between atoms: C_28  and  C_29 
ROOT
HETATM    1  O   UNL A   1       9.059  -1.435  19.969  1.00  0.00    -0.327 OA
HETATM    2  O   UNL A   1       9.649   1.899  18.778  1.00  0.00    -0.215 OA
HETATM    3  O   UNL A   1       7.431   0.417  18.180  1.00  0.00    -0.218 OA
HETATM    4  O   UNL A   1       7.723   0.968  21.098  1.00  0.00    -0.267 OA
HETATM    5  O   UNL A   1      11.935   0.292  22.826  1.00  0.00    -0.245 OA
HETATM    6  N   UNL A   1      10.941  -0.304  20.804  1.00  0.00    -0.183 NA
HETATM    7  N   UNL A   1       9.734   0.861  22.272  1.00  0.00    -0.248 N 
HETATM    8  C   UNL A   1       9.669  -0.157  20.144  1.00  0.00     0.284 A 
HETATM    9  C   UNL A   1       9.785   0.494  18.773  1.00  0.00     0.240 C 
HETATM   10  C   UNL A   1       8.699  -0.201  17.974  1.00  0.00     0.217 C 
HETATM   11  C   UNL A   1       8.688  -1.600  18.583  1.00  0.00     0.181 C 
HETATM   12  C   UNL A   1       8.895   0.631  21.202  1.00  0.00     0.290 A 
HETATM   13  C   UNL A   1      10.975   0.293  22.065  1.00  0.00     0.350 A 
ENDROOT
BRANCH  11  14
HETATM   14  C   UNL A   1       9.692  -2.543  17.932  1.00  0.00     0.188 C 
BRANCH  14  15
HETATM   15  O   UNL A   1      10.062  -3.533  18.877  1.00  0.00    -0.261 OA
BRANCH  15  16
HETATM   16  P   UNL A   1      11.520  -4.222  18.742  1.00  0.00     0.423 P 
HETATM   17  O   UNL A   1      11.331  -5.624  19.525  1.00  0.00    -0.617 OA
HETATM   18  O   UNL A   1      11.592  -4.669  17.189  1.00  0.00    -0.617 OA
HETATM   19  O   UNL A   1      12.666  -3.379  19.220  1.00  0.00    -0.617 OA
ENDBRANCH  15  16
ENDBRANCH  14  15
ENDBRANCH  11  14
BRANCH   7  20
HETATM   20  C   UNL A   1       9.340   1.578  23.468  1.00  0.00     0.114 C 
BRANCH  20  21
HETATM   21  C   UNL A   1       9.259   3.087  23.249  1.00  0.00     0.027 C 
BRANCH  21  22
HETATM   22  C   UNL A   1      10.483   3.634  22.498  1.00  0.00     0.032 C 
BRANCH  22  23
HETATM   23  C   UNL A   1      10.571   5.167  22.453  1.00  0.00     0.177 C 
BRANCH  23  24
HETATM   24  N   UNL A   1      11.958   5.625  22.364  1.00  0.00    -0.091 NA
HETATM   25  O   UNL A   1      12.631   4.945  23.457  1.00  0.00    -0.115 OA
BRANCH  24  26
HETATM   26  C   UNL A   1      12.597   5.118  21.152  1.00  0.00     0.286 C 
HETATM   27  O   UNL A   1      13.798   5.824  20.848  1.00  0.00    -0.198 OA
ENDBRANCH  24  26
ENDBRANCH  23  24
BRANCH  23  28
HETATM   28  C   UNL A   1       9.806   5.746  21.277  1.00  0.00     0.203 C 
HETATM   29  O   UNL A   1       9.737   7.102  21.334  1.00  0.00    -0.646 OA
HETATM   30  O   UNL A   1       9.296   5.099  20.371  1.00  0.00    -0.646 OA
ENDBRANCH  23  28
ENDBRANCH  22  23
ENDBRANCH  21  22
ENDBRANCH  20  21
ENDBRANCH   7  20
TORSDOF 10
ENDMDL
MODEL 18
REMARK VINA RESULT:      -4.9      4.230      8.523
REMARK  10 active torsions:
REMARK  status: ('A' for Active; 'I' for Inactive)
REMARK    1  A    between atoms: P_1  and  O_5 
REMARK    2  A    between atoms: O_5  and  C_23 
REMARK    3  A    between atoms: N_16  and  C_25 
REMARK    4  A    between atoms: N_17  and  C_28 
REMARK    5  A    between atoms: N_17  and  C_30 
REMARK    6  A    between atoms: C_21  and  C_23 
REMARK    7  A    between atoms: C_25  and  C_26 
REMARK    8  A    between atoms: C_26  and  C_27 
REMARK    9  A    between atoms: C_27  and  C_28 
REMARK   10  A    between atoms: C_28  and  C_29 
ROOT
HETATM    1  O   UNL A   1       9.578  -5.293  26.680  1.00  0.00    -0.327 OA
HETATM    2  O   UNL A   1       7.744  -7.088  24.171  1.00  0.00    -0.215 OA
HETATM    3  O   UNL A   1       7.743  -7.720  26.831  1.00  0.00    -0.218 OA
HETATM    4  O   UNL A   1       6.649  -5.002  26.269  1.00  0.00    -0.267 OA
HETATM    5  O   UNL A   1       9.122  -2.437  23.355  1.00  0.00    -0.245 OA
HETATM    6  N   UNL A   1       9.580  -4.414  24.501  1.00  0.00    -0.183 NA
HETATM    7  N   UNL A   1       7.565  -3.493  24.746  1.00  0.00    -0.248 N 
HETATM    8  C   UNL A   1       8.915  -5.308  25.416  1.00  0.00     0.284 A 
HETATM    9  C   UNL A   1       8.890  -6.747  24.923  1.00  0.00     0.240 C 
HETATM   10  C   UNL A   1       9.012  -7.548  26.205  1.00  0.00     0.217 C 
HETATM   11  C   UNL A   1       9.888  -6.648  27.071  1.00  0.00     0.181 C 
HETATM   12  C   UNL A   1       7.558  -4.615  25.549  1.00  0.00     0.290 A 
HETATM   13  C   UNL A   1       8.781  -3.338  24.112  1.00  0.00     0.350 A 
ENDROOT
BRANCH  11  14
HETATM   14  C   UNL A   1      11.379  -6.875  26.853  1.00  0.00     0.188 C 
BRANCH  14  15
HETATM   15  O   UNL A   1      12.099  -6.040  27.744  1.00  0.00    -0.261 OA
BRANCH  15  16
HETATM   16  P   UNL A   1      13.345  -5.185  27.163  1.00  0.00     0.423 P 
HETATM   17  O   UNL A   1      12.655  -4.266  26.026  1.00  0.00    -0.617 OA
HETATM   18  O   UNL A   1      13.674  -4.133  28.345  1.00  0.00    -0.617 OA
HETATM   19  O   UNL A   1      14.511  -6.006  26.692  1.00  0.00    -0.617 OA
ENDBRANCH  15  16
ENDBRANCH  14  15
ENDBRANCH  11  14
BRANCH   7  20
HETATM   20  C   UNL A   1       6.443  -2.583  24.622  1.00  0.00     0.114 C 
BRANCH  20  21
HETATM   21  C   UNL A   1       6.400  -1.547  25.742  1.00  0.00     0.027 C 
BRANCH  21  22
HETATM   22  C   UNL A   1       5.885  -0.182  25.255  1.00  0.00     0.032 C 
BRANCH  22  23
HETATM   23  C   UNL A   1       6.831   0.994  25.536  1.00  0.00     0.177 C 
BRANCH  23  24
HETATM   24  N   UNL A   1       6.956   1.874  24.375  1.00  0.00    -0.091 NA
HETATM   25  O   UNL A   1       8.085   2.731  24.693  1.00  0.00    -0.115 OA
BRANCH  24  26
HETATM   26  C   UNL A   1       7.371   1.123  23.193  1.00  0.00     0.286 C 
HETATM   27  O   UNL A   1       8.791   1.068  23.070  1.00  0.00    -0.198 OA
ENDBRANCH  24  26
ENDBRANCH  23  24
BRANCH  23  28
HETATM   28  C   UNL A   1       6.366   1.830  26.715  1.00  0.00     0.203 C 
HETATM   29  O   UNL A   1       5.261   2.562  26.413  1.00  0.00    -0.646 OA
HETATM   30  O   UNL A   1       6.899   1.866  27.817  1.00  0.00    -0.646 OA
ENDBRANCH  23  28
ENDBRANCH  22  23
ENDBRANCH  21  22
ENDBRANCH  20  21
ENDBRANCH   7  20
TORSDOF 10
ENDMDL
MODEL 19
REMARK VINA RESULT:      -4.9      5.010      8.429
REMARK  10 active torsions:
REMARK  status: ('A' for Active; 'I' for Inactive)
REMARK    1  A    between atoms: P_1  and  O_5 
REMARK    2  A    between atoms: O_5  and  C_23 
REMARK    3  A    between atoms: N_16  and  C_25 
REMARK    4  A    between atoms: N_17  and  C_28 
REMARK    5  A    between atoms: N_17  and  C_30 
REMARK    6  A    between atoms: C_21  and  C_23 
REMARK    7  A    between atoms: C_25  and  C_26 
REMARK    8  A    between atoms: C_26  and  C_27 
REMARK    9  A    between atoms: C_27  and  C_28 
REMARK   10  A    between atoms: C_28  and  C_29 
ROOT
HETATM    1  O   UNL A   1       8.724   3.198  22.317  1.00  0.00    -0.327 OA
HETATM    2  O   UNL A   1      11.537   1.611  20.751  1.00  0.00    -0.215 OA
HETATM    3  O   UNL A   1       8.936   1.237  19.995  1.00  0.00    -0.218 OA
HETATM    4  O   UNL A   1       9.848   4.063  19.706  1.00  0.00    -0.267 OA
HETATM    5  O   UNL A   1      12.163   5.773  23.297  1.00  0.00    -0.245 OA
HETATM    6  N   UNL A   1      10.868   3.856  23.019  1.00  0.00    -0.183 NA
HETATM    7  N   UNL A   1      11.156   5.200  21.265  1.00  0.00    -0.248 N 
HETATM    8  C   UNL A   1      10.110   3.209  21.977  1.00  0.00     0.284 A 
HETATM    9  C   UNL A   1      10.541   1.769  21.739  1.00  0.00     0.240 C 
HETATM   10  C   UNL A   1       9.239   1.080  21.379  1.00  0.00     0.217 C 
HETATM   11  C   UNL A   1       8.219   1.849  22.214  1.00  0.00     0.181 C 
HETATM   12  C   UNL A   1      10.339   4.183  20.820  1.00  0.00     0.290 A 
HETATM   13  C   UNL A   1      11.480   5.037  22.597  1.00  0.00     0.350 A 
ENDROOT
BRANCH  11  14
HETATM   14  C   UNL A   1       8.058   1.294  23.623  1.00  0.00     0.188 C 
BRANCH  14  15
HETATM   15  O   UNL A   1       7.249   2.184  24.371  1.00  0.00    -0.261 OA
BRANCH  15  16
HETATM   16  P   UNL A   1       6.371   1.588  25.594  1.00  0.00     0.423 P 
HETATM   17  O   UNL A   1       6.496  -0.010  25.383  1.00  0.00    -0.617 OA
HETATM   18  O   UNL A   1       7.287   1.866  26.896  1.00  0.00    -0.617 OA
HETATM   19  O   UNL A   1       4.965   2.108  25.675  1.00  0.00    -0.617 OA
ENDBRANCH  15  16
ENDBRANCH  14  15
ENDBRANCH  11  14
BRANCH   7  20
HETATM   20  C   UNL A   1      11.584   6.312  20.438  1.00  0.00     0.114 C 
BRANCH  20  21
HETATM   21  C   UNL A   1      13.101   6.376  20.279  1.00  0.00     0.027 C 
BRANCH  21  22
HETATM   22  C   UNL A   1      13.532   6.418  18.804  1.00  0.00     0.032 C 
BRANCH  22  23
HETATM   23  C   UNL A   1      14.827   7.201  18.541  1.00  0.00     0.177 C 
BRANCH  23  24
HETATM   24  N   UNL A   1      15.690   6.508  17.585  1.00  0.00    -0.091 NA
HETATM   25  O   UNL A   1      16.556   5.687  18.413  1.00  0.00    -0.115 OA
BRANCH  24  26
HETATM   26  C   UNL A   1      14.923   5.558  16.782  1.00  0.00     0.286 C 
HETATM   27  O   UNL A   1      15.762   4.782  15.930  1.00  0.00    -0.198 OA
ENDBRANCH  24  26
ENDBRANCH  23  24
BRANCH  23  28
HETATM   28  C   UNL A   1      14.550   8.594  18.003  1.00  0.00     0.203 C 
HETATM   29  O   UNL A   1      15.343   9.530  18.586  1.00  0.00    -0.646 OA
HETATM   30  O   UNL A   1      13.717   8.875  17.151  1.00  0.00    -0.646 OA
ENDBRANCH  23  28
ENDBRANCH  22  23
ENDBRANCH  21  22
ENDBRANCH  20  21
ENDBRANCH   7  20
TORSDOF 10
ENDMDL
MODEL 20
REMARK VINA RESULT:      -4.9      5.018      7.547
REMARK  10 active torsions:
REMARK  status: ('A' for Active; 'I' for Inactive)
REMARK    1  A    between atoms: P_1  and  O_5 
REMARK    2  A    between atoms: O_5  and  C_23 
REMARK    3  A    between atoms: N_16  and  C_25 
REMARK    4  A    between atoms: N_17  and  C_28 
REMARK    5  A    between atoms: N_17  and  C_30 
REMARK    6  A    between atoms: C_21  and  C_23 
REMARK    7  A    between atoms: C_25  and  C_26 
REMARK    8  A    between atoms: C_26  and  C_27 
REMARK    9  A    between atoms: C_27  and  C_28 
REMARK   10  A    between atoms: C_28  and  C_29 
ROOT
HETATM    1  O   UNL A   1      12.742   6.109  23.057  1.00  0.00    -0.327 OA
HETATM    2  O   UNL A   1      13.546   3.767  20.458  1.00  0.00    -0.215 OA
HETATM    3  O   UNL A   1      14.849   3.918  22.857  1.00  0.00    -0.218 OA
HETATM    4  O   UNL A   1      11.956   3.244  23.133  1.00  0.00    -0.267 OA
HETATM    5  O   UNL A   1       9.078   5.816  20.626  1.00  0.00    -0.245 OA
HETATM    6  N   UNL A   1      11.330   6.046  21.180  1.00  0.00    -0.183 NA
HETATM    7  N   UNL A   1      10.239   4.247  21.916  1.00  0.00    -0.248 N 
HETATM    8  C   UNL A   1      12.334   5.334  21.930  1.00  0.00     0.284 A 
HETATM    9  C   UNL A   1      13.575   5.021  21.108  1.00  0.00     0.240 C 
HETATM   10  C   UNL A   1      14.694   5.131  22.126  1.00  0.00     0.217 C 
HETATM   11  C   UNL A   1      14.181   6.225  23.058  1.00  0.00     0.181 C 
HETATM   12  C   UNL A   1      11.521   4.131  22.412  1.00  0.00     0.290 A 
HETATM   13  C   UNL A   1      10.091   5.405  21.179  1.00  0.00     0.350 A 
ENDROOT
BRANCH  11  14
HETATM   14  C   UNL A   1      14.544   7.628  22.590  1.00  0.00     0.188 C 
BRANCH  14  15
HETATM   15  O   UNL A   1      15.866   7.608  22.080  1.00  0.00    -0.261 OA
BRANCH  15  16
HETATM   16  P   UNL A   1      16.139   8.245  20.616  1.00  0.00     0.423 P 
HETATM   17  O   UNL A   1      17.535   9.034  20.820  1.00  0.00    -0.617 OA
HETATM   18  O   UNL A   1      16.558   6.970  19.715  1.00  0.00    -0.617 OA
HETATM   19  O   UNL A   1      15.015   9.077  20.069  1.00  0.00    -0.617 OA
ENDBRANCH  15  16
ENDBRANCH  14  15
ENDBRANCH  11  14
BRANCH   7  20
HETATM   20  C   UNL A   1       9.184   3.286  22.172  1.00  0.00     0.114 C 
BRANCH  20  21
HETATM   21  C   UNL A   1       9.205   2.115  21.192  1.00  0.00     0.027 C 
BRANCH  21  22
HETATM   22  C   UNL A   1       8.534   0.859  21.770  1.00  0.00     0.032 C 
BRANCH  22  23
HETATM   23  C   UNL A   1       8.697  -0.403  20.911  1.00  0.00     0.177 C 
BRANCH  23  24
HETATM   24  N   UNL A   1       7.942  -1.530  21.460  1.00  0.00    -0.091 NA
HETATM   25  O   UNL A   1       8.773  -2.688  21.179  1.00  0.00    -0.115 OA
BRANCH  24  26
HETATM   26  C   UNL A   1       7.878  -1.454  22.917  1.00  0.00     0.286 C 
HETATM   27  O   UNL A   1       7.219  -2.586  23.481  1.00  0.00    -0.198 OA
ENDBRANCH  24  26
ENDBRANCH  23  24
BRANCH  23  28
HETATM   28  C   UNL A   1       8.238  -0.180  19.481  1.00  0.00     0.203 C 
HETATM   29  O   UNL A   1       9.264  -0.288  18.596  1.00  0.00    -0.646 OA
HETATM   30  O   UNL A   1       7.091   0.072  19.132  1.00  0.00    -0.646 OA
ENDBRANCH  23  28
ENDBRANCH  22  23
ENDBRANCH  21  22
ENDBRANCH  20  21
ENDBRANCH   7  20
TORSDOF 10
ENDMDL
