MODEL 1
REMARK VINA RESULT:      -6.9      0.000      0.000
REMARK  7 active torsions:
REMARK  status: ('A' for Active; 'I' for Inactive)
REMARK       I    between atoms: N_6  and  C_13 
REMARK    1  A    between atoms: N_7  and  C_15 
REMARK       I    between atoms: N_7  and  C_21 
REMARK    2  A    between atoms: C_8  and  C_12 
REMARK    3  A    between atoms: C_9  and  C_14 
REMARK    4  A    between atoms: C_13  and  C_15 
REMARK    5  A    between atoms: C_21  and  C_22 
REMARK    6  A    between atoms: C_22  and  C_23 
REMARK    7  A    between atoms: C_23  and  C_24 
ROOT
HETATM    1  O   UNL A   1       6.979  -2.117  24.007  1.00  0.00    -0.270 OA
HETATM    2  N   UNL A   1       8.889  -3.421  24.162  1.00  0.00    -0.309 N 
HETATM    3  C   UNL A   1       8.543  -4.025  25.460  1.00  0.00     0.107 C 
HETATM    4  C   UNL A   1      10.283  -3.690  23.814  1.00  0.00     0.172 C 
HETATM    5  C   UNL A   1       9.766  -4.874  25.832  1.00  0.00     0.029 C 
HETATM    6  C   UNL A   1      10.916  -4.179  25.111  1.00  0.00     0.036 C 
HETATM    7  C   UNL A   1       8.053  -2.499  23.540  1.00  0.00     0.259 C 
ENDROOT
BRANCH   7   8
HETATM    8  C   UNL A   1       8.526  -1.960  22.213  1.00  0.00     0.216 C 
BRANCH   8   9
HETATM    9  N   UNL A   1       8.392  -0.544  22.308  1.00  0.00    -0.227 NA
HETATM   10  C   UNL A   1       9.464   0.308  22.584  1.00  0.00     0.263 C 
HETATM   11  O   UNL A   1      10.618  -0.075  22.771  1.00  0.00    -0.270 OA
BRANCH  10  12
HETATM   12  C   UNL A   1       9.063   1.778  22.660  1.00  0.00     0.142 C 
HETATM   13  S   UNL A   1       9.660   2.567  21.122  1.00  0.00    -0.073 SA
BRANCH  12  14
HETATM   14  C   UNL A   1       7.544   1.960  22.774  1.00  0.00     0.048 C 
BRANCH  14  15
HETATM   15  C   UNL A   1       7.069   1.901  24.209  1.00  0.00    -0.021 A 
HETATM   16  C   UNL A   1       7.748   2.613  25.198  1.00  0.00    -0.004 A 
HETATM   17  C   UNL A   1       7.310   2.559  26.522  1.00  0.00    -0.000 A 
HETATM   18  C   UNL A   1       6.193   1.794  26.856  1.00  0.00    -0.000 A 
HETATM   19  C   UNL A   1       5.514   1.082  25.867  1.00  0.00    -0.000 A 
HETATM   20  C   UNL A   1       5.952   1.136  24.544  1.00  0.00    -0.004 A 
ENDBRANCH  14  15
ENDBRANCH  12  14
ENDBRANCH  10  12
ENDBRANCH   8   9
ENDBRANCH   7   8
BRANCH   3  21
HETATM   21  C   UNL A   1       7.268  -4.840  25.471  1.00  0.00    -0.002 A 
HETATM   22  C   UNL A   1       7.278  -6.156  25.009  1.00  0.00    -0.003 A 
HETATM   23  C   UNL A   1       6.103  -6.907  25.019  1.00  0.00    -0.000 A 
HETATM   24  C   UNL A   1       4.918  -6.342  25.490  1.00  0.00    -0.000 A 
HETATM   25  C   UNL A   1       4.908  -5.025  25.952  1.00  0.00    -0.000 A 
HETATM   26  C   UNL A   1       6.083  -4.275  25.942  1.00  0.00    -0.003 A 
ENDBRANCH   3  21
BRANCH   4  27
HETATM   27  C   UNL A   1      10.308  -4.750  22.755  1.00  0.00     0.207 C 
HETATM   28  O   UNL A   1      11.563  -4.915  22.272  1.00  0.00    -0.646 OA
HETATM   29  O   UNL A   1       9.335  -5.386  22.376  1.00  0.00    -0.646 OA
ENDBRANCH   4  27
TORSDOF 7
ENDMDL
MODEL 2
REMARK VINA RESULT:      -6.8      2.203      3.375
REMARK  7 active torsions:
REMARK  status: ('A' for Active; 'I' for Inactive)
REMARK       I    between atoms: N_6  and  C_13 
REMARK    1  A    between atoms: N_7  and  C_15 
REMARK       I    between atoms: N_7  and  C_21 
REMARK    2  A    between atoms: C_8  and  C_12 
REMARK    3  A    between atoms: C_9  and  C_14 
REMARK    4  A    between atoms: C_13  and  C_15 
REMARK    5  A    between atoms: C_21  and  C_22 
REMARK    6  A    between atoms: C_22  and  C_23 
REMARK    7  A    between atoms: C_23  and  C_24 
ROOT
HETATM    1  O   UNL A   1      11.525  -1.461  23.261  1.00  0.00    -0.270 OA
HETATM    2  N   UNL A   1      10.545  -2.319  21.344  1.00  0.00    -0.309 N 
HETATM    3  C   UNL A   1      10.197  -3.623  21.934  1.00  0.00     0.107 C 
HETATM    4  C   UNL A   1      10.390  -2.344  19.890  1.00  0.00     0.172 C 
HETATM    5  C   UNL A   1       9.615  -4.434  20.769  1.00  0.00     0.029 C 
HETATM    6  C   UNL A   1      10.281  -3.823  19.540  1.00  0.00     0.036 C 
HETATM    7  C   UNL A   1      11.194  -1.334  22.081  1.00  0.00     0.259 C 
ENDROOT
BRANCH   7   8
HETATM    8  C   UNL A   1      11.489  -0.044  21.356  1.00  0.00     0.216 C 
BRANCH   8   9
HETATM    9  N   UNL A   1      10.475   0.867  21.772  1.00  0.00    -0.227 NA
HETATM   10  C   UNL A   1      10.676   1.833  22.761  1.00  0.00     0.263 C 
HETATM   11  O   UNL A   1      11.735   1.991  23.365  1.00  0.00    -0.270 OA
BRANCH  10  12
HETATM   12  C   UNL A   1       9.434   2.671  23.047  1.00  0.00     0.142 C 
HETATM   13  S   UNL A   1       9.421   4.030  21.825  1.00  0.00    -0.073 SA
BRANCH  12  14
HETATM   14  C   UNL A   1       8.141   1.854  22.920  1.00  0.00     0.048 C 
BRANCH  14  15
HETATM   15  C   UNL A   1       7.460   1.652  24.256  1.00  0.00    -0.021 A 
HETATM   16  C   UNL A   1       7.666   2.567  25.289  1.00  0.00    -0.004 A 
HETATM   17  C   UNL A   1       7.039   2.381  26.521  1.00  0.00    -0.000 A 
HETATM   18  C   UNL A   1       6.205   1.280  26.720  1.00  0.00    -0.000 A 
HETATM   19  C   UNL A   1       5.999   0.365  25.687  1.00  0.00    -0.000 A 
HETATM   20  C   UNL A   1       6.627   0.551  24.455  1.00  0.00    -0.004 A 
ENDBRANCH  14  15
ENDBRANCH  12  14
ENDBRANCH  10  12
ENDBRANCH   8   9
ENDBRANCH   7   8
BRANCH   3  21
HETATM   21  C   UNL A   1       9.245  -3.564  23.109  1.00  0.00    -0.002 A 
HETATM   22  C   UNL A   1       9.584  -4.183  24.312  1.00  0.00    -0.003 A 
HETATM   23  C   UNL A   1       8.706  -4.129  25.395  1.00  0.00    -0.000 A 
HETATM   24  C   UNL A   1       7.491  -3.456  25.275  1.00  0.00    -0.000 A 
HETATM   25  C   UNL A   1       7.152  -2.836  24.072  1.00  0.00    -0.000 A 
HETATM   26  C   UNL A   1       8.029  -2.890  22.989  1.00  0.00    -0.003 A 
ENDBRANCH   3  21
BRANCH   4  27
HETATM   27  C   UNL A   1       9.138  -1.600  19.537  1.00  0.00     0.207 C 
HETATM   28  O   UNL A   1       9.062  -1.397  18.200  1.00  0.00    -0.646 OA
HETATM   29  O   UNL A   1       8.294  -1.226  20.339  1.00  0.00    -0.646 OA
ENDBRANCH   4  27
TORSDOF 7
ENDMDL
MODEL 3
REMARK VINA RESULT:      -6.8      3.155      7.381
REMARK  7 active torsions:
REMARK  status: ('A' for Active; 'I' for Inactive)
REMARK       I    between atoms: N_6  and  C_13 
REMARK    1  A    between atoms: N_7  and  C_15 
REMARK       I    between atoms: N_7  and  C_21 
REMARK    2  A    between atoms: C_8  and  C_12 
REMARK    3  A    between atoms: C_9  and  C_14 
REMARK    4  A    between atoms: C_13  and  C_15 
REMARK    5  A    between atoms: C_21  and  C_22 
REMARK    6  A    between atoms: C_22  and  C_23 
REMARK    7  A    between atoms: C_23  and  C_24 
ROOT
HETATM    1  O   UNL A   1       8.364  -2.319  21.708  1.00  0.00    -0.270 OA
HETATM    2  N   UNL A   1       9.317  -0.230  22.025  1.00  0.00    -0.309 N 
HETATM    3  C   UNL A   1      10.193  -0.292  20.842  1.00  0.00     0.107 C 
HETATM    4  C   UNL A   1       9.691   0.885  22.894  1.00  0.00     0.172 C 
HETATM    5  C   UNL A   1      11.035   0.988  20.914  1.00  0.00     0.029 C 
HETATM    6  C   UNL A   1      11.069   1.311  22.404  1.00  0.00     0.036 C 
HETATM    7  C   UNL A   1       8.462  -1.275  22.357  1.00  0.00     0.259 C 
ENDROOT
BRANCH   7   8
HETATM    8  C   UNL A   1       7.619  -1.081  23.593  1.00  0.00     0.216 C 
BRANCH   8   9
HETATM    9  N   UNL A   1       7.514  -2.371  24.190  1.00  0.00    -0.227 NA
HETATM   10  C   UNL A   1       6.663  -2.650  25.262  1.00  0.00     0.263 C 
HETATM   11  O   UNL A   1       5.928  -1.819  25.792  1.00  0.00    -0.270 OA
BRANCH  10  12
HETATM   12  C   UNL A   1       6.749  -4.095  25.740  1.00  0.00     0.142 C 
HETATM   13  S   UNL A   1       5.151  -4.883  25.329  1.00  0.00    -0.073 SA
BRANCH  12  14
HETATM   14  C   UNL A   1       7.891  -4.864  25.062  1.00  0.00     0.048 C 
BRANCH  14  15
HETATM   15  C   UNL A   1       9.051  -5.109  26.001  1.00  0.00    -0.021 A 
HETATM   16  C   UNL A   1       8.929  -6.042  27.031  1.00  0.00    -0.004 A 
HETATM   17  C   UNL A   1       9.999  -6.268  27.898  1.00  0.00    -0.000 A 
HETATM   18  C   UNL A   1      11.191  -5.561  27.733  1.00  0.00    -0.000 A 
HETATM   19  C   UNL A   1      11.313  -4.628  26.704  1.00  0.00    -0.000 A 
HETATM   20  C   UNL A   1      10.242  -4.402  25.837  1.00  0.00    -0.004 A 
ENDBRANCH  14  15
ENDBRANCH  12  14
ENDBRANCH  10  12
ENDBRANCH   8   9
ENDBRANCH   7   8
BRANCH   3  21
HETATM   21  C   UNL A   1       9.474  -0.420  19.516  1.00  0.00    -0.002 A 
HETATM   22  C   UNL A   1       8.552   0.552  19.127  1.00  0.00    -0.003 A 
HETATM   23  C   UNL A   1       7.889   0.435  17.905  1.00  0.00    -0.000 A 
HETATM   24  C   UNL A   1       8.148  -0.655  17.074  1.00  0.00    -0.000 A 
HETATM   25  C   UNL A   1       9.071  -1.627  17.463  1.00  0.00    -0.000 A 
HETATM   26  C   UNL A   1       9.733  -1.509  18.684  1.00  0.00    -0.003 A 
ENDBRANCH   3  21
BRANCH   4  27
HETATM   27  C   UNL A   1       8.681   1.979  22.717  1.00  0.00     0.207 C 
HETATM   28  O   UNL A   1       9.022   3.069  23.446  1.00  0.00    -0.646 OA
HETATM   29  O   UNL A   1       7.685   1.907  22.012  1.00  0.00    -0.646 OA
ENDBRANCH   4  27
TORSDOF 7
ENDMDL
MODEL 4
REMARK VINA RESULT:      -6.8      2.185      3.202
REMARK  7 active torsions:
REMARK  status: ('A' for Active; 'I' for Inactive)
REMARK       I    between atoms: N_6  and  C_13 
REMARK    1  A    between atoms: N_7  and  C_15 
REMARK       I    between atoms: N_7  and  C_21 
REMARK    2  A    between atoms: C_8  and  C_12 
REMARK    3  A    between atoms: C_9  and  C_14 
REMARK    4  A    between atoms: C_13  and  C_15 
REMARK    5  A    between atoms: C_21  and  C_22 
REMARK    6  A    between atoms: C_22  and  C_23 
REMARK    7  A    between atoms: C_23  and  C_24 
ROOT
HETATM    1  O   UNL A   1       6.979  -2.011  24.061  1.00  0.00    -0.270 OA
HETATM    2  N   UNL A   1       8.868  -3.347  24.183  1.00  0.00    -0.309 N 
HETATM    3  C   UNL A   1       8.518  -3.972  25.471  1.00  0.00     0.107 C 
HETATM    4  C   UNL A   1      10.257  -3.632  23.825  1.00  0.00     0.172 C 
HETATM    5  C   UNL A   1       9.729  -4.847  25.821  1.00  0.00     0.029 C 
HETATM    6  C   UNL A   1      10.887  -4.156  25.110  1.00  0.00     0.036 C 
HETATM    7  C   UNL A   1       8.046  -2.401  23.583  1.00  0.00     0.259 C 
ENDROOT
BRANCH   7   8
HETATM    8  C   UNL A   1       8.522  -1.843  22.265  1.00  0.00     0.216 C 
BRANCH   8   9
HETATM    9  N   UNL A   1       8.577  -0.430  22.446  1.00  0.00    -0.227 NA
HETATM   10  C   UNL A   1       8.240   0.482  21.443  1.00  0.00     0.263 C 
HETATM   11  O   UNL A   1       7.867   0.161  20.316  1.00  0.00    -0.270 OA
BRANCH  10  12
HETATM   12  C   UNL A   1       8.404   1.937  21.871  1.00  0.00     0.142 C 
HETATM   13  S   UNL A   1       8.030   2.006  23.660  1.00  0.00    -0.073 SA
BRANCH  12  14
HETATM   14  C   UNL A   1       9.825   2.458  21.623  1.00  0.00     0.048 C 
BRANCH  14  15
HETATM   15  C   UNL A   1       9.861   3.962  21.459  1.00  0.00    -0.021 A 
HETATM   16  C   UNL A   1      10.215   4.772  22.538  1.00  0.00    -0.004 A 
HETATM   17  C   UNL A   1      10.248   6.159  22.388  1.00  0.00    -0.000 A 
HETATM   18  C   UNL A   1       9.928   6.735  21.158  1.00  0.00    -0.000 A 
HETATM   19  C   UNL A   1       9.574   5.925  20.079  1.00  0.00    -0.000 A 
HETATM   20  C   UNL A   1       9.541   4.538  20.230  1.00  0.00    -0.004 A 
ENDBRANCH  14  15
ENDBRANCH  12  14
ENDBRANCH  10  12
ENDBRANCH   8   9
ENDBRANCH   7   8
BRANCH   3  21
HETATM   21  C   UNL A   1       7.230  -4.766  25.471  1.00  0.00    -0.002 A 
HETATM   22  C   UNL A   1       7.217  -6.071  24.979  1.00  0.00    -0.003 A 
HETATM   23  C   UNL A   1       6.030  -6.804  24.978  1.00  0.00    -0.000 A 
HETATM   24  C   UNL A   1       4.856  -6.231  25.469  1.00  0.00    -0.000 A 
HETATM   25  C   UNL A   1       4.870  -4.925  25.961  1.00  0.00    -0.000 A 
HETATM   26  C   UNL A   1       6.057  -4.193  25.961  1.00  0.00    -0.003 A 
ENDBRANCH   3  21
BRANCH   4  27
HETATM   27  C   UNL A   1      10.261  -4.672  22.745  1.00  0.00     0.207 C 
HETATM   28  O   UNL A   1      11.506  -4.825  22.232  1.00  0.00    -0.646 OA
HETATM   29  O   UNL A   1       9.282  -5.301  22.374  1.00  0.00    -0.646 OA
ENDBRANCH   4  27
TORSDOF 7
ENDMDL
MODEL 5
REMARK VINA RESULT:      -6.6      2.103      6.446
REMARK  7 active torsions:
REMARK  status: ('A' for Active; 'I' for Inactive)
REMARK       I    between atoms: N_6  and  C_13 
REMARK    1  A    between atoms: N_7  and  C_15 
REMARK       I    between atoms: N_7  and  C_21 
REMARK    2  A    between atoms: C_8  and  C_12 
REMARK    3  A    between atoms: C_9  and  C_14 
REMARK    4  A    between atoms: C_13  and  C_15 
REMARK    5  A    between atoms: C_21  and  C_22 
REMARK    6  A    between atoms: C_22  and  C_23 
REMARK    7  A    between atoms: C_23  and  C_24 
ROOT
HETATM    1  O   UNL A   1       7.733  -1.831  23.280  1.00  0.00    -0.270 OA
HETATM    2  N   UNL A   1       8.803   0.072  22.501  1.00  0.00    -0.309 N 
HETATM    3  C   UNL A   1       7.670   0.981  22.745  1.00  0.00     0.107 C 
HETATM    4  C   UNL A   1       9.822   0.716  21.674  1.00  0.00     0.172 C 
HETATM    5  C   UNL A   1       8.126   2.332  22.177  1.00  0.00     0.029 C 
HETATM    6  C   UNL A   1       9.130   1.944  21.096  1.00  0.00     0.036 C 
HETATM    7  C   UNL A   1       8.727  -1.285  22.798  1.00  0.00     0.259 C 
ENDROOT
BRANCH   7   8
HETATM    8  C   UNL A   1       9.959  -2.102  22.501  1.00  0.00     0.216 C 
BRANCH   8   9
HETATM    9  N   UNL A   1       9.802  -3.311  23.239  1.00  0.00    -0.227 NA
HETATM   10  C   UNL A   1       9.474  -4.533  22.645  1.00  0.00     0.263 C 
HETATM   11  O   UNL A   1       9.291  -4.684  21.438  1.00  0.00    -0.270 OA
BRANCH  10  12
HETATM   12  C   UNL A   1       9.337  -5.674  23.648  1.00  0.00     0.142 C 
HETATM   13  S   UNL A   1      10.965  -6.501  23.731  1.00  0.00    -0.073 SA
BRANCH  12  14
HETATM   14  C   UNL A   1       8.942  -5.175  25.044  1.00  0.00     0.048 C 
BRANCH  14  15
HETATM   15  C   UNL A   1       7.448  -5.242  25.272  1.00  0.00    -0.021 A 
HETATM   16  C   UNL A   1       6.751  -4.098  25.662  1.00  0.00    -0.004 A 
HETATM   17  C   UNL A   1       5.373  -4.159  25.873  1.00  0.00    -0.000 A 
HETATM   18  C   UNL A   1       4.693  -5.364  25.693  1.00  0.00    -0.000 A 
HETATM   19  C   UNL A   1       5.390  -6.507  25.303  1.00  0.00    -0.000 A 
HETATM   20  C   UNL A   1       6.768  -6.446  25.092  1.00  0.00    -0.004 A 
ENDBRANCH  14  15
ENDBRANCH  12  14
ENDBRANCH  10  12
ENDBRANCH   8   9
ENDBRANCH   7   8
BRANCH   3  21
HETATM   21  C   UNL A   1       7.237   1.096  24.191  1.00  0.00    -0.002 A 
HETATM   22  C   UNL A   1       6.220   0.277  24.681  1.00  0.00    -0.003 A 
HETATM   23  C   UNL A   1       5.821   0.383  26.013  1.00  0.00    -0.000 A 
HETATM   24  C   UNL A   1       6.439   1.308  26.855  1.00  0.00    -0.000 A 
HETATM   25  C   UNL A   1       7.457   2.127  26.365  1.00  0.00    -0.000 A 
HETATM   26  C   UNL A   1       7.855   2.021  25.033  1.00  0.00    -0.003 A 
ENDBRANCH   3  21
BRANCH   4  27
HETATM   27  C   UNL A   1      10.973   1.095  22.556  1.00  0.00     0.207 C 
HETATM   28  O   UNL A   1      12.146   0.987  21.886  1.00  0.00    -0.646 OA
HETATM   29  O   UNL A   1      10.875   1.456  23.720  1.00  0.00    -0.646 OA
ENDBRANCH   4  27
TORSDOF 7
ENDMDL
MODEL 6
REMARK VINA RESULT:      -6.6      3.513      6.778
REMARK  7 active torsions:
REMARK  status: ('A' for Active; 'I' for Inactive)
REMARK       I    between atoms: N_6  and  C_13 
REMARK    1  A    between atoms: N_7  and  C_15 
REMARK       I    between atoms: N_7  and  C_21 
REMARK    2  A    between atoms: C_8  and  C_12 
REMARK    3  A    between atoms: C_9  and  C_14 
REMARK    4  A    between atoms: C_13  and  C_15 
REMARK    5  A    between atoms: C_21  and  C_22 
REMARK    6  A    between atoms: C_22  and  C_23 
REMARK    7  A    between atoms: C_23  and  C_24 
ROOT
HETATM    1  O   UNL A   1       7.275   0.084  20.002  1.00  0.00    -0.270 OA
HETATM    2  N   UNL A   1       8.882   1.390  21.043  1.00  0.00    -0.309 N 
HETATM    3  C   UNL A   1       8.170   1.493  22.328  1.00  0.00     0.107 C 
HETATM    4  C   UNL A   1       9.991   2.341  20.982  1.00  0.00     0.172 C 
HETATM    5  C   UNL A   1       9.027   2.445  23.173  1.00  0.00     0.029 C 
HETATM    6  C   UNL A   1       9.734   3.307  22.132  1.00  0.00     0.036 C 
HETATM    7  C   UNL A   1       8.355   0.677  19.971  1.00  0.00     0.259 C 
ENDROOT
BRANCH   7   8
HETATM    8  C   UNL A   1       9.188   0.651  18.714  1.00  0.00     0.216 C 
BRANCH   8   9
HETATM    9  N   UNL A   1       9.809  -0.632  18.696  1.00  0.00    -0.227 NA
HETATM   10  C   UNL A   1       9.452  -1.641  17.797  1.00  0.00     0.263 C 
HETATM   11  O   UNL A   1       8.577  -1.522  16.941  1.00  0.00    -0.270 OA
BRANCH  10  12
HETATM   12  C   UNL A   1      10.242  -2.930  17.992  1.00  0.00     0.142 C 
HETATM   13  S   UNL A   1      11.130  -3.248  16.426  1.00  0.00    -0.073 SA
BRANCH  12  14
HETATM   14  C   UNL A   1      11.252  -2.824  19.142  1.00  0.00     0.048 C 
BRANCH  14  15
HETATM   15  C   UNL A   1      10.885  -3.716  20.308  1.00  0.00    -0.021 A 
HETATM   16  C   UNL A   1       9.936  -4.725  20.142  1.00  0.00    -0.004 A 
HETATM   17  C   UNL A   1       9.598  -5.548  21.217  1.00  0.00    -0.000 A 
HETATM   18  C   UNL A   1      10.210  -5.362  22.457  1.00  0.00    -0.000 A 
HETATM   19  C   UNL A   1      11.159  -4.353  22.623  1.00  0.00    -0.000 A 
HETATM   20  C   UNL A   1      11.497  -3.530  21.548  1.00  0.00    -0.004 A 
ENDBRANCH  14  15
ENDBRANCH  12  14
ENDBRANCH  10  12
ENDBRANCH   8   9
ENDBRANCH   7   8
BRANCH   3  21
HETATM   21  C   UNL A   1       7.927   0.177  23.036  1.00  0.00    -0.002 A 
HETATM   22  C   UNL A   1       7.067   0.125  24.133  1.00  0.00    -0.003 A 
HETATM   23  C   UNL A   1       6.844  -1.088  24.786  1.00  0.00    -0.000 A 
HETATM   24  C   UNL A   1       7.481  -2.247  24.342  1.00  0.00    -0.000 A 
HETATM   25  C   UNL A   1       8.341  -2.194  23.244  1.00  0.00    -0.000 A 
HETATM   26  C   UNL A   1       8.564  -0.981  22.592  1.00  0.00    -0.003 A 
ENDBRANCH   3  21
BRANCH   4  27
HETATM   27  C   UNL A   1      11.271   1.583  21.174  1.00  0.00     0.207 C 
HETATM   28  O   UNL A   1      12.337   2.357  20.856  1.00  0.00    -0.646 OA
HETATM   29  O   UNL A   1      11.350   0.428  21.564  1.00  0.00    -0.646 OA
ENDBRANCH   4  27
TORSDOF 7
ENDMDL
MODEL 7
REMARK VINA RESULT:      -6.5      2.612      3.462
REMARK  7 active torsions:
REMARK  status: ('A' for Active; 'I' for Inactive)
REMARK       I    between atoms: N_6  and  C_13 
REMARK    1  A    between atoms: N_7  and  C_15 
REMARK       I    between atoms: N_7  and  C_21 
REMARK    2  A    between atoms: C_8  and  C_12 
REMARK    3  A    between atoms: C_9  and  C_14 
REMARK    4  A    between atoms: C_13  and  C_15 
REMARK    5  A    between atoms: C_21  and  C_22 
REMARK    6  A    between atoms: C_22  and  C_23 
REMARK    7  A    between atoms: C_23  and  C_24 
ROOT
HETATM    1  O   UNL A   1       7.783  -2.770  22.803  1.00  0.00    -0.270 OA
HETATM    2  N   UNL A   1       9.447  -4.009  23.837  1.00  0.00    -0.309 N 
HETATM    3  C   UNL A   1       8.848  -3.957  25.181  1.00  0.00     0.107 C 
HETATM    4  C   UNL A   1      10.821  -4.504  23.896  1.00  0.00     0.172 C 
HETATM    5  C   UNL A   1       9.874  -4.644  26.092  1.00  0.00     0.029 C 
HETATM    6  C   UNL A   1      11.198  -4.420  25.370  1.00  0.00     0.036 C 
HETATM    7  C   UNL A   1       8.844  -3.395  22.744  1.00  0.00     0.259 C 
ENDROOT
BRANCH   7   8
HETATM    8  C   UNL A   1       9.563  -3.527  21.425  1.00  0.00     0.216 C 
BRANCH   8   9
HETATM    9  N   UNL A   1       9.231  -2.350  20.691  1.00  0.00    -0.227 NA
HETATM   10  C   UNL A   1       9.560  -2.171  19.345  1.00  0.00     0.263 C 
HETATM   11  O   UNL A   1      10.161  -3.002  18.666  1.00  0.00    -0.270 OA
BRANCH  10  12
HETATM   12  C   UNL A   1       9.121  -0.820  18.791  1.00  0.00     0.142 C 
HETATM   13  S   UNL A   1       8.163  -1.159  17.272  1.00  0.00    -0.073 SA
BRANCH  12  14
HETATM   14  C   UNL A   1       8.250  -0.041  19.785  1.00  0.00     0.048 C 
BRANCH  14  15
HETATM   15  C   UNL A   1       8.952   1.190  20.317  1.00  0.00    -0.021 A 
HETATM   16  C   UNL A   1       8.677   1.646  21.605  1.00  0.00    -0.004 A 
HETATM   17  C   UNL A   1       9.324   2.781  22.096  1.00  0.00    -0.000 A 
HETATM   18  C   UNL A   1      10.246   3.458  21.298  1.00  0.00    -0.000 A 
HETATM   19  C   UNL A   1      10.521   3.001  20.009  1.00  0.00    -0.000 A 
HETATM   20  C   UNL A   1       9.874   1.866  19.518  1.00  0.00    -0.004 A 
ENDBRANCH  14  15
ENDBRANCH  12  14
ENDBRANCH  10  12
ENDBRANCH   8   9
ENDBRANCH   7   8
BRANCH   3  21
HETATM   21  C   UNL A   1       7.478  -4.590  25.300  1.00  0.00    -0.002 A 
HETATM   22  C   UNL A   1       7.312  -5.948  25.028  1.00  0.00    -0.003 A 
HETATM   23  C   UNL A   1       6.049  -6.531  25.136  1.00  0.00    -0.000 A 
HETATM   24  C   UNL A   1       4.953  -5.757  25.517  1.00  0.00    -0.000 A 
HETATM   25  C   UNL A   1       5.120  -4.398  25.789  1.00  0.00    -0.000 A 
HETATM   26  C   UNL A   1       6.382  -3.815  25.680  1.00  0.00    -0.003 A 
ENDBRANCH   3  21
BRANCH   4  27
HETATM   27  C   UNL A   1      10.833  -5.920  23.403  1.00  0.00     0.207 C 
HETATM   28  O   UNL A   1      12.074  -6.454  23.511  1.00  0.00    -0.646 OA
HETATM   29  O   UNL A   1       9.862  -6.518  22.965  1.00  0.00    -0.646 OA
ENDBRANCH   4  27
TORSDOF 7
ENDMDL
MODEL 8
REMARK VINA RESULT:      -6.5      3.857      8.435
REMARK  7 active torsions:
REMARK  status: ('A' for Active; 'I' for Inactive)
REMARK       I    between atoms: N_6  and  C_13 
REMARK    1  A    between atoms: N_7  and  C_15 
REMARK       I    between atoms: N_7  and  C_21 
REMARK    2  A    between atoms: C_8  and  C_12 
REMARK    3  A    between atoms: C_9  and  C_14 
REMARK    4  A    between atoms: C_13  and  C_15 
REMARK    5  A    between atoms: C_21  and  C_22 
REMARK    6  A    between atoms: C_22  and  C_23 
REMARK    7  A    between atoms: C_23  and  C_24 
ROOT
HETATM    1  O   UNL A   1      10.476   2.154  23.406  1.00  0.00    -0.270 OA
HETATM    2  N   UNL A   1      10.296   4.085  22.136  1.00  0.00    -0.309 N 
HETATM    3  C   UNL A   1      11.519   4.715  22.661  1.00  0.00     0.107 C 
HETATM    4  C   UNL A   1       9.494   5.048  21.382  1.00  0.00     0.172 C 
HETATM    5  C   UNL A   1      11.545   6.109  22.020  1.00  0.00     0.029 C 
HETATM    6  C   UNL A   1      10.074   6.407  21.754  1.00  0.00     0.036 C 
HETATM    7  C   UNL A   1       9.876   2.831  22.568  1.00  0.00     0.259 C 
ENDROOT
BRANCH   7   8
HETATM    8  C   UNL A   1       8.607   2.302  21.948  1.00  0.00     0.216 C 
BRANCH   8   9
HETATM    9  N   UNL A   1       8.717   0.882  22.007  1.00  0.00    -0.227 NA
HETATM   10  C   UNL A   1       8.141   0.031  21.062  1.00  0.00     0.263 C 
HETATM   11  O   UNL A   1       7.487   0.418  20.094  1.00  0.00    -0.270 OA
BRANCH  10  12
HETATM   12  C   UNL A   1       8.376  -1.447  21.357  1.00  0.00     0.142 C 
HETATM   13  S   UNL A   1       9.447  -2.087  20.021  1.00  0.00    -0.073 SA
BRANCH  12  14
HETATM   14  C   UNL A   1       9.059  -1.666  22.713  1.00  0.00     0.048 C 
BRANCH  14  15
HETATM   15  C   UNL A   1       8.113  -2.245  23.741  1.00  0.00    -0.021 A 
HETATM   16  C   UNL A   1       8.134  -3.612  24.018  1.00  0.00    -0.004 A 
HETATM   17  C   UNL A   1       7.262  -4.146  24.966  1.00  0.00    -0.000 A 
HETATM   18  C   UNL A   1       6.367  -3.312  25.639  1.00  0.00    -0.000 A 
HETATM   19  C   UNL A   1       6.346  -1.945  25.362  1.00  0.00    -0.000 A 
HETATM   20  C   UNL A   1       7.218  -1.411  24.414  1.00  0.00    -0.004 A 
ENDBRANCH  14  15
ENDBRANCH  12  14
ENDBRANCH  10  12
ENDBRANCH   8   9
ENDBRANCH   7   8
BRANCH   3  21
HETATM   21  C   UNL A   1      12.800   3.951  22.398  1.00  0.00    -0.002 A 
HETATM   22  C   UNL A   1      13.185   3.667  21.088  1.00  0.00    -0.003 A 
HETATM   23  C   UNL A   1      14.365   2.963  20.845  1.00  0.00    -0.000 A 
HETATM   24  C   UNL A   1      15.157   2.542  21.913  1.00  0.00    -0.000 A 
HETATM   25  C   UNL A   1      14.771   2.826  23.223  1.00  0.00    -0.000 A 
HETATM   26  C   UNL A   1      13.592   3.530  23.465  1.00  0.00    -0.003 A 
ENDBRANCH   3  21
BRANCH   4  27
HETATM   27  C   UNL A   1       9.663   4.758  19.921  1.00  0.00     0.207 C 
HETATM   28  O   UNL A   1       9.294   5.828  19.175  1.00  0.00    -0.646 OA
HETATM   29  O   UNL A   1      10.078   3.706  19.457  1.00  0.00    -0.646 OA
ENDBRANCH   4  27
TORSDOF 7
ENDMDL
MODEL 9
REMARK VINA RESULT:      -6.3      2.220      2.928
REMARK  7 active torsions:
REMARK  status: ('A' for Active; 'I' for Inactive)
REMARK       I    between atoms: N_6  and  C_13 
REMARK    1  A    between atoms: N_7  and  C_15 
REMARK       I    between atoms: N_7  and  C_21 
REMARK    2  A    between atoms: C_8  and  C_12 
REMARK    3  A    between atoms: C_9  and  C_14 
REMARK    4  A    between atoms: C_13  and  C_15 
REMARK    5  A    between atoms: C_21  and  C_22 
REMARK    6  A    between atoms: C_22  and  C_23 
REMARK    7  A    between atoms: C_23  and  C_24 
ROOT
HETATM    1  O   UNL A   1       8.576  -3.313  23.158  1.00  0.00    -0.270 OA
HETATM    2  N   UNL A   1       9.512  -5.376  23.649  1.00  0.00    -0.309 N 
HETATM    3  C   UNL A   1       9.066  -5.404  25.052  1.00  0.00     0.107 C 
HETATM    4  C   UNL A   1      10.498  -6.425  23.393  1.00  0.00     0.172 C 
HETATM    5  C   UNL A   1       9.692  -6.678  25.635  1.00  0.00     0.029 C 
HETATM    6  C   UNL A   1      10.934  -6.890  24.776  1.00  0.00     0.036 C 
HETATM    7  C   UNL A   1       9.218  -4.306  22.810  1.00  0.00     0.259 C 
ENDROOT
BRANCH   7   8
HETATM    8  C   UNL A   1       9.734  -4.406  21.396  1.00  0.00     0.216 C 
BRANCH   8   9
HETATM    9  N   UNL A   1       9.326  -3.200  20.756  1.00  0.00    -0.227 NA
HETATM   10  C   UNL A   1      10.225  -2.214  20.340  1.00  0.00     0.263 C 
HETATM   11  O   UNL A   1      11.444  -2.289  20.483  1.00  0.00    -0.270 OA
BRANCH  10  12
HETATM   12  C   UNL A   1       9.544  -1.006  19.704  1.00  0.00     0.142 C 
HETATM   13  S   UNL A   1       9.397  -1.363  17.918  1.00  0.00    -0.073 SA
BRANCH  12  14
HETATM   14  C   UNL A   1       8.151  -0.749  20.293  1.00  0.00     0.048 C 
BRANCH  14  15
HETATM   15  C   UNL A   1       8.178   0.296  21.387  1.00  0.00    -0.021 A 
HETATM   16  C   UNL A   1       8.809   1.520  21.166  1.00  0.00    -0.004 A 
HETATM   17  C   UNL A   1       8.834   2.484  22.175  1.00  0.00    -0.000 A 
HETATM   18  C   UNL A   1       8.228   2.223  23.404  1.00  0.00    -0.000 A 
HETATM   19  C   UNL A   1       7.597   0.999  23.625  1.00  0.00    -0.000 A 
HETATM   20  C   UNL A   1       7.572   0.035  22.616  1.00  0.00    -0.004 A 
ENDBRANCH  14  15
ENDBRANCH  12  14
ENDBRANCH  10  12
ENDBRANCH   8   9
ENDBRANCH   7   8
BRANCH   3  21
HETATM   21  C   UNL A   1       7.566  -5.372  25.251  1.00  0.00    -0.002 A 
HETATM   22  C   UNL A   1       6.798  -6.494  24.941  1.00  0.00    -0.003 A 
HETATM   23  C   UNL A   1       5.415  -6.465  25.124  1.00  0.00    -0.000 A 
HETATM   24  C   UNL A   1       4.801  -5.313  25.616  1.00  0.00    -0.000 A 
HETATM   25  C   UNL A   1       5.570  -4.191  25.927  1.00  0.00    -0.000 A 
HETATM   26  C   UNL A   1       6.952  -4.220  25.744  1.00  0.00    -0.003 A 
ENDBRANCH   3  21
BRANCH   4  27
HETATM   27  C   UNL A   1       9.825  -7.526  22.628  1.00  0.00     0.207 C 
HETATM   28  O   UNL A   1      10.712  -8.500  22.312  1.00  0.00    -0.646 OA
HETATM   29  O   UNL A   1       8.641  -7.549  22.328  1.00  0.00    -0.646 OA
ENDBRANCH   4  27
TORSDOF 7
ENDMDL
MODEL 10
REMARK VINA RESULT:      -6.3      4.245      6.381
REMARK  7 active torsions:
REMARK  status: ('A' for Active; 'I' for Inactive)
REMARK       I    between atoms: N_6  and  C_13 
REMARK    1  A    between atoms: N_7  and  C_15 
REMARK       I    between atoms: N_7  and  C_21 
REMARK    2  A    between atoms: C_8  and  C_12 
REMARK    3  A    between atoms: C_9  and  C_14 
REMARK    4  A    between atoms: C_13  and  C_15 
REMARK    5  A    between atoms: C_21  and  C_22 
REMARK    6  A    between atoms: C_22  and  C_23 
REMARK    7  A    between atoms: C_23  and  C_24 
ROOT
HETATM    1  O   UNL A   1      10.664   0.643  21.529  1.00  0.00    -0.270 OA
HETATM    2  N   UNL A   1       9.907  -0.562  19.699  1.00  0.00    -0.309 N 
HETATM    3  C   UNL A   1      10.297  -1.881  20.227  1.00  0.00     0.107 C 
HETATM    4  C   UNL A   1       9.559  -0.648  18.282  1.00  0.00     0.172 C 
HETATM    5  C   UNL A   1       9.982  -2.863  19.091  1.00  0.00     0.029 C 
HETATM    6  C   UNL A   1      10.092  -2.004  17.836  1.00  0.00     0.036 C 
HETATM    7  C   UNL A   1      10.133   0.608  20.417  1.00  0.00     0.259 C 
ENDROOT
BRANCH   7   8
HETATM    8  C   UNL A   1       9.684   1.890  19.761  1.00  0.00     0.216 C 
BRANCH   8   9
HETATM    9  N   UNL A   1      10.314   2.935  20.498  1.00  0.00    -0.227 NA
HETATM   10  C   UNL A   1      10.130   4.290  20.210  1.00  0.00     0.263 C 
HETATM   11  O   UNL A   1       9.414   4.711  19.303  1.00  0.00    -0.270 OA
BRANCH  10  12
HETATM   12  C   UNL A   1      10.931   5.214  21.121  1.00  0.00     0.142 C 
HETATM   13  S   UNL A   1       9.903   6.700  21.400  1.00  0.00    -0.073 SA
BRANCH  12  14
HETATM   14  C   UNL A   1      11.261   4.558  22.468  1.00  0.00     0.048 C 
BRANCH  14  15
HETATM   15  C   UNL A   1      12.658   4.897  22.941  1.00  0.00    -0.021 A 
HETATM   16  C   UNL A   1      13.721   4.046  22.640  1.00  0.00    -0.004 A 
HETATM   17  C   UNL A   1      15.009   4.358  23.076  1.00  0.00    -0.000 A 
HETATM   18  C   UNL A   1      15.234   5.522  23.812  1.00  0.00    -0.000 A 
HETATM   19  C   UNL A   1      14.170   6.373  24.112  1.00  0.00    -0.000 A 
HETATM   20  C   UNL A   1      12.882   6.061  23.676  1.00  0.00    -0.004 A 
ENDBRANCH  14  15
ENDBRANCH  12  14
ENDBRANCH  10  12
ENDBRANCH   8   9
ENDBRANCH   7   8
BRANCH   3  21
HETATM   21  C   UNL A   1       9.620  -2.281  21.521  1.00  0.00    -0.002 A 
HETATM   22  C   UNL A   1       8.276  -1.973  21.728  1.00  0.00    -0.003 A 
HETATM   23  C   UNL A   1       7.651  -2.341  22.920  1.00  0.00    -0.000 A 
HETATM   24  C   UNL A   1       8.372  -3.017  23.904  1.00  0.00    -0.000 A 
HETATM   25  C   UNL A   1       9.717  -3.326  23.697  1.00  0.00    -0.000 A 
HETATM   26  C   UNL A   1      10.340  -2.958  22.505  1.00  0.00    -0.003 A 
ENDBRANCH   3  21
BRANCH   4  27
HETATM   27  C   UNL A   1       8.067  -0.575  18.159  1.00  0.00     0.207 C 
HETATM   28  O   UNL A   1       7.677  -0.846  16.890  1.00  0.00    -0.646 OA
HETATM   29  O   UNL A   1       7.300  -0.309  19.073  1.00  0.00    -0.646 OA
ENDBRANCH   4  27
TORSDOF 7
ENDMDL
MODEL 11
REMARK VINA RESULT:      -6.2      3.707      5.218
REMARK  7 active torsions:
REMARK  status: ('A' for Active; 'I' for Inactive)
REMARK       I    between atoms: N_6  and  C_13 
REMARK    1  A    between atoms: N_7  and  C_15 
REMARK       I    between atoms: N_7  and  C_21 
REMARK    2  A    between atoms: C_8  and  C_12 
REMARK    3  A    between atoms: C_9  and  C_14 
REMARK    4  A    between atoms: C_13  and  C_15 
REMARK    5  A    between atoms: C_21  and  C_22 
REMARK    6  A    between atoms: C_22  and  C_23 
REMARK    7  A    between atoms: C_23  and  C_24 
ROOT
HETATM    1  O   UNL A   1       9.241  -4.046  23.624  1.00  0.00    -0.270 OA
HETATM    2  N   UNL A   1       9.849  -5.732  25.095  1.00  0.00    -0.309 N 
HETATM    3  C   UNL A   1       8.978  -5.282  26.194  1.00  0.00     0.107 C 
HETATM    4  C   UNL A   1      10.802  -6.738  25.561  1.00  0.00     0.172 C 
HETATM    5  C   UNL A   1       9.309  -6.220  27.362  1.00  0.00     0.029 C 
HETATM    6  C   UNL A   1      10.746  -6.647  27.081  1.00  0.00     0.036 C 
HETATM    7  C   UNL A   1       9.902  -5.055  23.881  1.00  0.00     0.259 C 
ENDROOT
BRANCH   7   8
HETATM    8  C   UNL A   1      10.835  -5.623  22.841  1.00  0.00     0.216 C 
BRANCH   8   9
HETATM    9  N   UNL A   1      11.070  -4.561  21.920  1.00  0.00    -0.227 NA
HETATM   10  C   UNL A   1      10.831  -4.672  20.548  1.00  0.00     0.263 C 
HETATM   11  O   UNL A   1      10.399  -5.687  20.004  1.00  0.00    -0.270 OA
BRANCH  10  12
HETATM   12  C   UNL A   1      11.186  -3.410  19.769  1.00  0.00     0.142 C 
HETATM   13  S   UNL A   1      12.983  -3.479  19.442  1.00  0.00    -0.073 SA
BRANCH  12  14
HETATM   14  C   UNL A   1      10.426  -3.316  18.439  1.00  0.00     0.048 C 
BRANCH  14  15
HETATM   15  C   UNL A   1       9.428  -2.178  18.432  1.00  0.00    -0.021 A 
HETATM   16  C   UNL A   1       8.913  -1.695  19.634  1.00  0.00    -0.004 A 
HETATM   17  C   UNL A   1       7.993  -0.646  19.628  1.00  0.00    -0.000 A 
HETATM   18  C   UNL A   1       7.589  -0.080  18.418  1.00  0.00    -0.000 A 
HETATM   19  C   UNL A   1       8.104  -0.564  17.215  1.00  0.00    -0.000 A 
HETATM   20  C   UNL A   1       9.024  -1.613  17.222  1.00  0.00    -0.004 A 
ENDBRANCH  14  15
ENDBRANCH  12  14
ENDBRANCH  10  12
ENDBRANCH   8   9
ENDBRANCH   7   8
BRANCH   3  21
HETATM   21  C   UNL A   1       7.497  -5.277  25.880  1.00  0.00    -0.002 A 
HETATM   22  C   UNL A   1       6.788  -4.076  25.885  1.00  0.00    -0.003 A 
HETATM   23  C   UNL A   1       5.423  -4.071  25.596  1.00  0.00    -0.000 A 
HETATM   24  C   UNL A   1       4.768  -5.266  25.302  1.00  0.00    -0.000 A 
HETATM   25  C   UNL A   1       5.478  -6.468  25.296  1.00  0.00    -0.000 A 
HETATM   26  C   UNL A   1       6.842  -6.473  25.585  1.00  0.00    -0.003 A 
ENDBRANCH   3  21
BRANCH   4  27
HETATM   27  C   UNL A   1      10.346  -8.080  25.072  1.00  0.00     0.207 C 
HETATM   28  O   UNL A   1      11.258  -9.035  25.376  1.00  0.00    -0.646 OA
HETATM   29  O   UNL A   1       9.297  -8.292  24.483  1.00  0.00    -0.646 OA
ENDBRANCH   4  27
TORSDOF 7
ENDMDL
MODEL 12
REMARK VINA RESULT:      -6.2      2.485      6.606
REMARK  7 active torsions:
REMARK  status: ('A' for Active; 'I' for Inactive)
REMARK       I    between atoms: N_6  and  C_13 
REMARK    1  A    between atoms: N_7  and  C_15 
REMARK       I    between atoms: N_7  and  C_21 
REMARK    2  A    between atoms: C_8  and  C_12 
REMARK    3  A    between atoms: C_9  and  C_14 
REMARK    4  A    between atoms: C_13  and  C_15 
REMARK    5  A    between atoms: C_21  and  C_22 
REMARK    6  A    between atoms: C_22  and  C_23 
REMARK    7  A    between atoms: C_23  and  C_24 
ROOT
HETATM    1  O   UNL A   1       8.277  -2.503  24.181  1.00  0.00    -0.270 OA
HETATM    2  N   UNL A   1       8.858  -1.729  22.075  1.00  0.00    -0.309 N 
HETATM    3  C   UNL A   1       7.736  -0.781  21.958  1.00  0.00     0.107 C 
HETATM    4  C   UNL A   1       9.527  -1.908  20.788  1.00  0.00     0.172 C 
HETATM    5  C   UNL A   1       7.855  -0.210  20.539  1.00  0.00     0.029 C 
HETATM    6  C   UNL A   1       8.562  -1.319  19.766  1.00  0.00     0.036 C 
HETATM    7  C   UNL A   1       9.029  -2.522  23.205  1.00  0.00     0.259 C 
ENDROOT
BRANCH   7   8
HETATM    8  C   UNL A   1      10.220  -3.447  23.195  1.00  0.00     0.216 C 
BRANCH   8   9
HETATM    9  N   UNL A   1      10.050  -4.299  24.325  1.00  0.00    -0.227 NA
HETATM   10  C   UNL A   1       9.837  -5.676  24.220  1.00  0.00     0.263 C 
HETATM   11  O   UNL A   1       9.776  -6.283  23.152  1.00  0.00    -0.270 OA
BRANCH  10  12
HETATM   12  C   UNL A   1       9.659  -6.364  25.569  1.00  0.00     0.142 C 
HETATM   13  S   UNL A   1      11.330  -6.573  26.279  1.00  0.00    -0.073 SA
BRANCH  12  14
HETATM   14  C   UNL A   1       8.791  -5.541  26.530  1.00  0.00     0.048 C 
BRANCH  14  15
HETATM   15  C   UNL A   1       7.324  -5.594  26.161  1.00  0.00    -0.021 A 
HETATM   16  C   UNL A   1       6.544  -4.440  26.242  1.00  0.00    -0.004 A 
HETATM   17  C   UNL A   1       5.191  -4.488  25.903  1.00  0.00    -0.000 A 
HETATM   18  C   UNL A   1       4.620  -5.689  25.481  1.00  0.00    -0.000 A 
HETATM   19  C   UNL A   1       5.401  -6.842  25.400  1.00  0.00    -0.000 A 
HETATM   20  C   UNL A   1       6.753  -6.794  25.740  1.00  0.00    -0.004 A 
ENDBRANCH  14  15
ENDBRANCH  12  14
ENDBRANCH  10  12
ENDBRANCH   8   9
ENDBRANCH   7   8
BRANCH   3  21
HETATM   21  C   UNL A   1       7.706   0.313  23.004  1.00  0.00    -0.002 A 
HETATM   22  C   UNL A   1       8.600   1.380  22.920  1.00  0.00    -0.003 A 
HETATM   23  C   UNL A   1       8.573   2.389  23.884  1.00  0.00    -0.000 A 
HETATM   24  C   UNL A   1       7.653   2.329  24.931  1.00  0.00    -0.000 A 
HETATM   25  C   UNL A   1       6.759   1.260  25.014  1.00  0.00    -0.000 A 
HETATM   26  C   UNL A   1       6.786   0.253  24.050  1.00  0.00    -0.003 A 
ENDBRANCH   3  21
BRANCH   4  27
HETATM   27  C   UNL A   1      10.822  -1.154  20.821  1.00  0.00     0.207 C 
HETATM   28  O   UNL A   1      11.862  -1.976  20.537  1.00  0.00    -0.646 OA
HETATM   29  O   UNL A   1      10.934   0.038  21.068  1.00  0.00    -0.646 OA
ENDBRANCH   4  27
TORSDOF 7
ENDMDL
MODEL 13
REMARK VINA RESULT:      -6.0      2.992      7.578
REMARK  7 active torsions:
REMARK  status: ('A' for Active; 'I' for Inactive)
REMARK       I    between atoms: N_6  and  C_13 
REMARK    1  A    between atoms: N_7  and  C_15 
REMARK       I    between atoms: N_7  and  C_21 
REMARK    2  A    between atoms: C_8  and  C_12 
REMARK    3  A    between atoms: C_9  and  C_14 
REMARK    4  A    between atoms: C_13  and  C_15 
REMARK    5  A    between atoms: C_21  and  C_22 
REMARK    6  A    between atoms: C_22  and  C_23 
REMARK    7  A    between atoms: C_23  and  C_24 
ROOT
HETATM    1  O   UNL A   1      12.184  -0.226  22.312  1.00  0.00    -0.270 OA
HETATM    2  N   UNL A   1      10.053   0.363  21.617  1.00  0.00    -0.309 N 
HETATM    3  C   UNL A   1      10.013   1.641  22.349  1.00  0.00     0.107 C 
HETATM    4  C   UNL A   1       8.725   0.003  21.123  1.00  0.00     0.172 C 
HETATM    5  C   UNL A   1       8.594   2.177  22.119  1.00  0.00     0.029 C 
HETATM    6  C   UNL A   1       7.770   0.916  21.881  1.00  0.00     0.036 C 
HETATM    7  C   UNL A   1      11.163  -0.473  21.668  1.00  0.00     0.259 C 
ENDROOT
BRANCH   7   8
HETATM    8  C   UNL A   1      11.072  -1.750  20.870  1.00  0.00     0.216 C 
BRANCH   8   9
HETATM    9  N   UNL A   1      11.023  -2.799  21.834  1.00  0.00    -0.227 NA
HETATM   10  C   UNL A   1       9.883  -3.573  22.063  1.00  0.00     0.263 C 
HETATM   11  O   UNL A   1       8.820  -3.429  21.463  1.00  0.00    -0.270 OA
BRANCH  10  12
HETATM   12  C   UNL A   1      10.071  -4.614  23.162  1.00  0.00     0.142 C 
HETATM   13  S   UNL A   1      11.767  -5.273  22.979  1.00  0.00    -0.073 SA
BRANCH  12  14
HETATM   14  C   UNL A   1       9.901  -4.015  24.564  1.00  0.00     0.048 C 
BRANCH  14  15
HETATM   15  C   UNL A   1       8.453  -3.982  24.999  1.00  0.00    -0.021 A 
HETATM   16  C   UNL A   1       7.869  -5.114  25.567  1.00  0.00    -0.004 A 
HETATM   17  C   UNL A   1       6.533  -5.083  25.968  1.00  0.00    -0.000 A 
HETATM   18  C   UNL A   1       5.781  -3.920  25.800  1.00  0.00    -0.000 A 
HETATM   19  C   UNL A   1       6.365  -2.788  25.232  1.00  0.00    -0.000 A 
HETATM   20  C   UNL A   1       7.701  -2.819  24.831  1.00  0.00    -0.004 A 
ENDBRANCH  14  15
ENDBRANCH  12  14
ENDBRANCH  10  12
ENDBRANCH   8   9
ENDBRANCH   7   8
BRANCH   3  21
HETATM   21  C   UNL A   1      11.067   2.648  21.943  1.00  0.00    -0.002 A 
HETATM   22  C   UNL A   1      11.971   3.130  22.889  1.00  0.00    -0.003 A 
HETATM   23  C   UNL A   1      12.943   4.058  22.515  1.00  0.00    -0.000 A 
HETATM   24  C   UNL A   1      13.010   4.505  21.195  1.00  0.00    -0.000 A 
HETATM   25  C   UNL A   1      12.105   4.022  20.249  1.00  0.00    -0.000 A 
HETATM   26  C   UNL A   1      11.134   3.094  20.623  1.00  0.00    -0.003 A 
ENDBRANCH   3  21
BRANCH   4  27
HETATM   27  C   UNL A   1       8.685   0.265  19.647  1.00  0.00     0.207 C 
HETATM   28  O   UNL A   1       7.522  -0.180  19.113  1.00  0.00    -0.646 OA
HETATM   29  O   UNL A   1       9.573   0.808  19.007  1.00  0.00    -0.646 OA
ENDBRANCH   4  27
TORSDOF 7
ENDMDL
MODEL 14
REMARK VINA RESULT:      -6.0      4.754      9.160
REMARK  7 active torsions:
REMARK  status: ('A' for Active; 'I' for Inactive)
REMARK       I    between atoms: N_6  and  C_13 
REMARK    1  A    between atoms: N_7  and  C_15 
REMARK       I    between atoms: N_7  and  C_21 
REMARK    2  A    between atoms: C_8  and  C_12 
REMARK    3  A    between atoms: C_9  and  C_14 
REMARK    4  A    between atoms: C_13  and  C_15 
REMARK    5  A    between atoms: C_21  and  C_22 
REMARK    6  A    between atoms: C_22  and  C_23 
REMARK    7  A    between atoms: C_23  and  C_24 
ROOT
HETATM    1  O   UNL A   1      12.997   2.315  21.644  1.00  0.00    -0.270 OA
HETATM    2  N   UNL A   1      11.795   4.296  21.709  1.00  0.00    -0.309 N 
HETATM    3  C   UNL A   1      12.526   4.868  22.853  1.00  0.00     0.107 C 
HETATM    4  C   UNL A   1      10.586   5.067  21.424  1.00  0.00     0.172 C 
HETATM    5  C   UNL A   1      11.801   6.184  23.160  1.00  0.00     0.029 C 
HETATM    6  C   UNL A   1      10.382   5.936  22.659  1.00  0.00     0.036 C 
HETATM    7  C   UNL A   1      12.106   3.041  21.198  1.00  0.00     0.259 C 
ENDROOT
BRANCH   7   8
HETATM    8  C   UNL A   1      11.281   2.576  20.023  1.00  0.00     0.216 C 
BRANCH   8   9
HETATM    9  N   UNL A   1      10.049   2.123  20.579  1.00  0.00    -0.227 NA
HETATM   10  C   UNL A   1       9.863   0.830  21.074  1.00  0.00     0.263 C 
HETATM   11  O   UNL A   1      10.736  -0.037  21.079  1.00  0.00    -0.270 OA
BRANCH  10  12
HETATM   12  C   UNL A   1       8.451   0.578  21.592  1.00  0.00     0.142 C 
HETATM   13  S   UNL A   1       7.498  -0.128  20.201  1.00  0.00    -0.073 SA
BRANCH  12  14
HETATM   14  C   UNL A   1       8.433  -0.398  22.775  1.00  0.00     0.048 C 
BRANCH  14  15
HETATM   15  C   UNL A   1       7.464   0.032  23.854  1.00  0.00    -0.021 A 
HETATM   16  C   UNL A   1       7.091   1.371  23.963  1.00  0.00    -0.004 A 
HETATM   17  C   UNL A   1       6.197   1.768  24.958  1.00  0.00    -0.000 A 
HETATM   18  C   UNL A   1       5.675   0.825  25.844  1.00  0.00    -0.000 A 
HETATM   19  C   UNL A   1       6.048  -0.515  25.735  1.00  0.00    -0.000 A 
HETATM   20  C   UNL A   1       6.942  -0.912  24.740  1.00  0.00    -0.004 A 
ENDBRANCH  14  15
ENDBRANCH  12  14
ENDBRANCH  10  12
ENDBRANCH   8   9
ENDBRANCH   7   8
BRANCH   3  21
HETATM   21  C   UNL A   1      14.008   5.081  22.628  1.00  0.00    -0.002 A 
HETATM   22  C   UNL A   1      14.442   5.977  21.652  1.00  0.00    -0.003 A 
HETATM   23  C   UNL A   1      15.807   6.174  21.444  1.00  0.00    -0.000 A 
HETATM   24  C   UNL A   1      16.738   5.473  22.212  1.00  0.00    -0.000 A 
HETATM   25  C   UNL A   1      16.303   4.577  23.189  1.00  0.00    -0.000 A 
HETATM   26  C   UNL A   1      14.938   4.381  23.396  1.00  0.00    -0.003 A 
ENDBRANCH   3  21
BRANCH   4  27
HETATM   27  C   UNL A   1      10.835   5.897  20.201  1.00  0.00     0.207 C 
HETATM   28  O   UNL A   1       9.668   6.358  19.689  1.00  0.00    -0.646 OA
HETATM   29  O   UNL A   1      11.936   6.132  19.724  1.00  0.00    -0.646 OA
ENDBRANCH   4  27
TORSDOF 7
ENDMDL
MODEL 15
REMARK VINA RESULT:      -6.0      4.241      6.363
REMARK  7 active torsions:
REMARK  status: ('A' for Active; 'I' for Inactive)
REMARK       I    between atoms: N_6  and  C_13 
REMARK    1  A    between atoms: N_7  and  C_15 
REMARK       I    between atoms: N_7  and  C_21 
REMARK    2  A    between atoms: C_8  and  C_12 
REMARK    3  A    between atoms: C_9  and  C_14 
REMARK    4  A    between atoms: C_13  and  C_15 
REMARK    5  A    between atoms: C_21  and  C_22 
REMARK    6  A    between atoms: C_22  and  C_23 
REMARK    7  A    between atoms: C_23  and  C_24 
ROOT
HETATM    1  O   UNL A   1      10.368   1.176  20.943  1.00  0.00    -0.270 OA
HETATM    2  N   UNL A   1      10.263  -1.021  21.672  1.00  0.00    -0.309 N 
HETATM    3  C   UNL A   1       8.876  -1.251  21.232  1.00  0.00     0.107 C 
HETATM    4  C   UNL A   1      10.718  -2.100  22.548  1.00  0.00     0.172 C 
HETATM    5  C   UNL A   1       8.538  -2.662  21.731  1.00  0.00     0.029 C 
HETATM    6  C   UNL A   1       9.446  -2.839  22.943  1.00  0.00     0.036 C 
HETATM    7  C   UNL A   1      10.897   0.202  21.483  1.00  0.00     0.259 C 
ENDROOT
BRANCH   7   8
HETATM    8  C   UNL A   1      12.317   0.301  21.979  1.00  0.00     0.216 C 
BRANCH   8   9
HETATM    9  N   UNL A   1      12.604   1.696  22.039  1.00  0.00    -0.227 NA
HETATM   10  C   UNL A   1      13.848   2.236  21.705  1.00  0.00     0.263 C 
HETATM   11  O   UNL A   1      14.810   1.568  21.329  1.00  0.00    -0.270 OA
BRANCH  10  12
HETATM   12  C   UNL A   1      13.915   3.750  21.874  1.00  0.00     0.142 C 
HETATM   13  S   UNL A   1      15.684   4.186  22.025  1.00  0.00    -0.073 SA
BRANCH  12  14
HETATM   14  C   UNL A   1      13.302   4.495  20.682  1.00  0.00     0.048 C 
BRANCH  14  15
HETATM   15  C   UNL A   1      12.014   5.198  21.049  1.00  0.00    -0.021 A 
HETATM   16  C   UNL A   1      11.237   5.793  20.056  1.00  0.00    -0.004 A 
HETATM   17  C   UNL A   1      10.048   6.441  20.394  1.00  0.00    -0.000 A 
HETATM   18  C   UNL A   1       9.637   6.493  21.727  1.00  0.00    -0.000 A 
HETATM   19  C   UNL A   1      10.414   5.898  22.720  1.00  0.00    -0.000 A 
HETATM   20  C   UNL A   1      11.603   5.250  22.381  1.00  0.00    -0.004 A 
ENDBRANCH  14  15
ENDBRANCH  12  14
ENDBRANCH  10  12
ENDBRANCH   8   9
ENDBRANCH   7   8
BRANCH   3  21
HETATM   21  C   UNL A   1       8.643  -1.109  19.743  1.00  0.00    -0.002 A 
HETATM   22  C   UNL A   1       7.706  -0.191  19.269  1.00  0.00    -0.003 A 
HETATM   23  C   UNL A   1       7.490  -0.060  17.897  1.00  0.00    -0.000 A 
HETATM   24  C   UNL A   1       8.211  -0.849  17.000  1.00  0.00    -0.000 A 
HETATM   25  C   UNL A   1       9.147  -1.768  17.474  1.00  0.00    -0.000 A 
HETATM   26  C   UNL A   1       9.363  -1.898  18.846  1.00  0.00    -0.003 A 
ENDBRANCH   3  21
BRANCH   4  27
HETATM   27  C   UNL A   1      11.648  -2.979  21.767  1.00  0.00     0.207 C 
HETATM   28  O   UNL A   1      11.853  -4.152  22.414  1.00  0.00    -0.646 OA
HETATM   29  O   UNL A   1      12.153  -2.687  20.693  1.00  0.00    -0.646 OA
ENDBRANCH   4  27
TORSDOF 7
ENDMDL
MODEL 16
REMARK VINA RESULT:      -5.9      3.239      6.935
REMARK  7 active torsions:
REMARK  status: ('A' for Active; 'I' for Inactive)
REMARK       I    between atoms: N_6  and  C_13 
REMARK    1  A    between atoms: N_7  and  C_15 
REMARK       I    between atoms: N_7  and  C_21 
REMARK    2  A    between atoms: C_8  and  C_12 
REMARK    3  A    between atoms: C_9  and  C_14 
REMARK    4  A    between atoms: C_13  and  C_15 
REMARK    5  A    between atoms: C_21  and  C_22 
REMARK    6  A    between atoms: C_22  and  C_23 
REMARK    7  A    between atoms: C_23  and  C_24 
ROOT
HETATM    1  O   UNL A   1       8.561  -3.395  22.467  1.00  0.00    -0.270 OA
HETATM    2  N   UNL A   1       9.554  -2.889  20.434  1.00  0.00    -0.309 N 
HETATM    3  C   UNL A   1       8.771  -1.664  20.195  1.00  0.00     0.107 C 
HETATM    4  C   UNL A   1      10.271  -3.295  19.227  1.00  0.00     0.172 C 
HETATM    5  C   UNL A   1       9.195  -1.198  18.796  1.00  0.00     0.029 C 
HETATM    6  C   UNL A   1       9.627  -2.487  18.106  1.00  0.00     0.036 C 
HETATM    7  C   UNL A   1       9.371  -3.661  21.577  1.00  0.00     0.259 C 
ENDROOT
BRANCH   7   8
HETATM    8  C   UNL A   1      10.239  -4.889  21.697  1.00  0.00     0.216 C 
BRANCH   8   9
HETATM    9  N   UNL A   1       9.504  -5.797  22.513  1.00  0.00    -0.227 NA
HETATM   10  C   UNL A   1      10.102  -6.624  23.466  1.00  0.00     0.263 C 
HETATM   11  O   UNL A   1      11.311  -6.651  23.694  1.00  0.00    -0.270 OA
BRANCH  10  12
HETATM   12  C   UNL A   1       9.108  -7.524  24.193  1.00  0.00     0.142 C 
HETATM   13  S   UNL A   1       9.903  -9.163  24.357  1.00  0.00    -0.073 SA
BRANCH  12  14
HETATM   14  C   UNL A   1       8.748  -6.987  25.584  1.00  0.00     0.048 C 
BRANCH  14  15
HETATM   15  C   UNL A   1       7.513  -6.114  25.557  1.00  0.00    -0.021 A 
HETATM   16  C   UNL A   1       7.633  -4.732  25.697  1.00  0.00    -0.004 A 
HETATM   17  C   UNL A   1       6.493  -3.926  25.671  1.00  0.00    -0.000 A 
HETATM   18  C   UNL A   1       5.235  -4.504  25.505  1.00  0.00    -0.000 A 
HETATM   19  C   UNL A   1       5.115  -5.887  25.364  1.00  0.00    -0.000 A 
HETATM   20  C   UNL A   1       6.254  -6.692  25.390  1.00  0.00    -0.004 A 
ENDBRANCH  14  15
ENDBRANCH  12  14
ENDBRANCH  10  12
ENDBRANCH   8   9
ENDBRANCH   7   8
BRANCH   3  21
HETATM   21  C   UNL A   1       8.952  -0.574  21.230  1.00  0.00    -0.002 A 
HETATM   22  C   UNL A   1      10.217  -0.034  21.460  1.00  0.00    -0.003 A 
HETATM   23  C   UNL A   1      10.383   0.971  22.413  1.00  0.00    -0.000 A 
HETATM   24  C   UNL A   1       9.284   1.434  23.137  1.00  0.00    -0.000 A 
HETATM   25  C   UNL A   1       8.019   0.893  22.907  1.00  0.00    -0.000 A 
HETATM   26  C   UNL A   1       7.853  -0.111  21.954  1.00  0.00    -0.003 A 
ENDBRANCH   3  21
BRANCH   4  27
HETATM   27  C   UNL A   1      11.718  -2.944  19.398  1.00  0.00     0.207 C 
HETATM   28  O   UNL A   1      12.418  -3.235  18.275  1.00  0.00    -0.646 OA
HETATM   29  O   UNL A   1      12.207  -2.459  20.408  1.00  0.00    -0.646 OA
ENDBRANCH   4  27
TORSDOF 7
ENDMDL
MODEL 17
REMARK VINA RESULT:      -5.9      6.314     10.028
REMARK  7 active torsions:
REMARK  status: ('A' for Active; 'I' for Inactive)
REMARK       I    between atoms: N_6  and  C_13 
REMARK    1  A    between atoms: N_7  and  C_15 
REMARK       I    between atoms: N_7  and  C_21 
REMARK    2  A    between atoms: C_8  and  C_12 
REMARK    3  A    between atoms: C_9  and  C_14 
REMARK    4  A    between atoms: C_13  and  C_15 
REMARK    5  A    between atoms: C_21  and  C_22 
REMARK    6  A    between atoms: C_22  and  C_23 
REMARK    7  A    between atoms: C_23  and  C_24 
ROOT
HETATM    1  O   UNL A   1      13.763   3.715  20.341  1.00  0.00    -0.270 OA
HETATM    2  N   UNL A   1      14.435   5.426  21.753  1.00  0.00    -0.309 N 
HETATM    3  C   UNL A   1      13.667   6.483  21.072  1.00  0.00     0.107 C 
HETATM    4  C   UNL A   1      15.390   6.001  22.698  1.00  0.00     0.172 C 
HETATM    5  C   UNL A   1      14.062   7.778  21.793  1.00  0.00     0.029 C 
HETATM    6  C   UNL A   1      15.458   7.478  22.327  1.00  0.00     0.036 C 
HETATM    7  C   UNL A   1      14.411   4.107  21.313  1.00  0.00     0.259 C 
ENDROOT
BRANCH   7   8
HETATM    8  C   UNL A   1      15.241   3.126  22.103  1.00  0.00     0.216 C 
BRANCH   8   9
HETATM    9  N   UNL A   1      14.305   2.251  22.728  1.00  0.00    -0.227 NA
HETATM   10  C   UNL A   1      14.131   0.919  22.345  1.00  0.00     0.263 C 
HETATM   11  O   UNL A   1      14.763   0.374  21.441  1.00  0.00    -0.270 OA
BRANCH  10  12
HETATM   12  C   UNL A   1      13.053   0.196  23.145  1.00  0.00     0.142 C 
HETATM   13  S   UNL A   1      13.728  -0.067  24.824  1.00  0.00    -0.073 SA
BRANCH  12  14
HETATM   14  C   UNL A   1      11.755   1.009  23.236  1.00  0.00     0.048 C 
BRANCH  14  15
HETATM   15  C   UNL A   1      11.039   1.091  21.906  1.00  0.00    -0.021 A 
HETATM   16  C   UNL A   1      10.869   2.326  21.280  1.00  0.00    -0.004 A 
HETATM   17  C   UNL A   1      10.209   2.401  20.053  1.00  0.00    -0.000 A 
HETATM   18  C   UNL A   1       9.719   1.242  19.452  1.00  0.00    -0.000 A 
HETATM   19  C   UNL A   1       9.888   0.007  20.078  1.00  0.00    -0.000 A 
HETATM   20  C   UNL A   1      10.549  -0.069  21.305  1.00  0.00    -0.004 A 
ENDBRANCH  14  15
ENDBRANCH  12  14
ENDBRANCH  10  12
ENDBRANCH   8   9
ENDBRANCH   7   8
BRANCH   3  21
HETATM   21  C   UNL A   1      12.167   6.281  21.058  1.00  0.00    -0.002 A 
HETATM   22  C   UNL A   1      11.471   6.311  19.850  1.00  0.00    -0.003 A 
HETATM   23  C   UNL A   1      10.088   6.125  19.837  1.00  0.00    -0.000 A 
HETATM   24  C   UNL A   1       9.403   5.910  21.033  1.00  0.00    -0.000 A 
HETATM   25  C   UNL A   1      10.099   5.880  22.241  1.00  0.00    -0.000 A 
HETATM   26  C   UNL A   1      11.481   6.066  22.254  1.00  0.00    -0.003 A 
ENDBRANCH   3  21
BRANCH   4  27
HETATM   27  C   UNL A   1      14.857   5.805  24.085  1.00  0.00     0.207 C 
HETATM   28  O   UNL A   1      15.656   6.413  24.996  1.00  0.00    -0.646 OA
HETATM   29  O   UNL A   1      13.841   5.186  24.365  1.00  0.00    -0.646 OA
ENDBRANCH   4  27
TORSDOF 7
ENDMDL
MODEL 18
REMARK VINA RESULT:      -5.8      4.707      6.808
REMARK  7 active torsions:
REMARK  status: ('A' for Active; 'I' for Inactive)
REMARK       I    between atoms: N_6  and  C_13 
REMARK    1  A    between atoms: N_7  and  C_15 
REMARK       I    between atoms: N_7  and  C_21 
REMARK    2  A    between atoms: C_8  and  C_12 
REMARK    3  A    between atoms: C_9  and  C_14 
REMARK    4  A    between atoms: C_13  and  C_15 
REMARK    5  A    between atoms: C_21  and  C_22 
REMARK    6  A    between atoms: C_22  and  C_23 
REMARK    7  A    between atoms: C_23  and  C_24 
ROOT
HETATM    1  O   UNL A   1       9.809   1.467  20.895  1.00  0.00    -0.270 OA
HETATM    2  N   UNL A   1      10.093  -0.699  21.668  1.00  0.00    -0.309 N 
HETATM    3  C   UNL A   1       8.783  -1.188  21.204  1.00  0.00     0.107 C 
HETATM    4  C   UNL A   1      10.718  -1.660  22.576  1.00  0.00     0.172 C 
HETATM    5  C   UNL A   1       8.698  -2.629  21.726  1.00  0.00     0.029 C 
HETATM    6  C   UNL A   1       9.595  -2.615  22.960  1.00  0.00     0.036 C 
HETATM    7  C   UNL A   1      10.495   0.617  21.465  1.00  0.00     0.259 C 
ENDROOT
BRANCH   7   8
HETATM    8  C   UNL A   1      11.861   0.984  21.988  1.00  0.00     0.216 C 
BRANCH   8   9
HETATM    9  N   UNL A   1      11.987   2.387  21.769  1.00  0.00    -0.227 NA
HETATM   10  C   UNL A   1      12.843   3.203  22.513  1.00  0.00     0.263 C 
HETATM   11  O   UNL A   1      13.565   2.796  23.422  1.00  0.00    -0.270 OA
BRANCH  10  12
HETATM   12  C   UNL A   1      12.782   4.672  22.107  1.00  0.00     0.142 C 
HETATM   13  S   UNL A   1      11.590   4.788  20.727  1.00  0.00    -0.073 SA
BRANCH  12  14
HETATM   14  C   UNL A   1      12.323   5.573  23.260  1.00  0.00     0.048 C 
BRANCH  14  15
HETATM   15  C   UNL A   1      13.480   6.291  23.920  1.00  0.00    -0.021 A 
HETATM   16  C   UNL A   1      13.693   6.156  25.292  1.00  0.00    -0.004 A 
HETATM   17  C   UNL A   1      14.761   6.818  25.900  1.00  0.00    -0.000 A 
HETATM   18  C   UNL A   1      15.615   7.613  25.136  1.00  0.00    -0.000 A 
HETATM   19  C   UNL A   1      15.402   7.748  23.764  1.00  0.00    -0.000 A 
HETATM   20  C   UNL A   1      14.334   7.086  23.156  1.00  0.00    -0.004 A 
ENDBRANCH  14  15
ENDBRANCH  12  14
ENDBRANCH  10  12
ENDBRANCH   8   9
ENDBRANCH   7   8
BRANCH   3  21
HETATM   21  C   UNL A   1       8.563  -1.118  19.709  1.00  0.00    -0.002 A 
HETATM   22  C   UNL A   1       9.386  -1.844  18.849  1.00  0.00    -0.003 A 
HETATM   23  C   UNL A   1       9.184  -1.779  17.470  1.00  0.00    -0.000 A 
HETATM   24  C   UNL A   1       8.159  -0.988  16.952  1.00  0.00    -0.000 A 
HETATM   25  C   UNL A   1       7.335  -0.261  17.813  1.00  0.00    -0.000 A 
HETATM   26  C   UNL A   1       7.538  -0.327  19.191  1.00  0.00    -0.003 A 
ENDBRANCH   3  21
BRANCH   4  27
HETATM   27  C   UNL A   1      11.812  -2.367  21.833  1.00  0.00     0.207 C 
HETATM   28  O   UNL A   1      12.434  -3.263  22.635  1.00  0.00    -0.646 OA
HETATM   29  O   UNL A   1      12.107  -2.168  20.663  1.00  0.00    -0.646 OA
ENDBRANCH   4  27
TORSDOF 7
ENDMDL
MODEL 19
REMARK VINA RESULT:      -5.6      6.140     10.435
REMARK  7 active torsions:
REMARK  status: ('A' for Active; 'I' for Inactive)
REMARK       I    between atoms: N_6  and  C_13 
REMARK    1  A    between atoms: N_7  and  C_15 
REMARK       I    between atoms: N_7  and  C_21 
REMARK    2  A    between atoms: C_8  and  C_12 
REMARK    3  A    between atoms: C_9  and  C_14 
REMARK    4  A    between atoms: C_13  and  C_15 
REMARK    5  A    between atoms: C_21  and  C_22 
REMARK    6  A    between atoms: C_22  and  C_23 
REMARK    7  A    between atoms: C_23  and  C_24 
ROOT
HETATM    1  O   UNL A   1      12.301   5.391  20.159  1.00  0.00    -0.270 OA
HETATM    2  N   UNL A   1      13.737   5.230  21.971  1.00  0.00    -0.309 N 
HETATM    3  C   UNL A   1      14.942   4.948  21.172  1.00  0.00     0.107 C 
HETATM    4  C   UNL A   1      13.980   4.976  23.390  1.00  0.00     0.172 C 
HETATM    5  C   UNL A   1      16.042   4.681  22.208  1.00  0.00     0.029 C 
HETATM    6  C   UNL A   1      15.273   4.172  23.423  1.00  0.00     0.036 C 
HETATM    7  C   UNL A   1      12.497   5.430  21.375  1.00  0.00     0.259 C 
ENDROOT
BRANCH   7   8
HETATM    8  C   UNL A   1      11.346   5.713  22.309  1.00  0.00     0.216 C 
BRANCH   8   9
HETATM    9  N   UNL A   1      10.672   4.467  22.470  1.00  0.00    -0.227 NA
HETATM   10  C   UNL A   1       9.577   4.085  21.692  1.00  0.00     0.263 C 
HETATM   11  O   UNL A   1       9.091   4.778  20.800  1.00  0.00    -0.270 OA
BRANCH  10  12
HETATM   12  C   UNL A   1       9.013   2.719  22.072  1.00  0.00     0.142 C 
HETATM   13  S   UNL A   1       9.793   1.498  20.957  1.00  0.00    -0.073 SA
BRANCH  12  14
HETATM   14  C   UNL A   1       9.318   2.352  23.530  1.00  0.00     0.048 C 
BRANCH  14  15
HETATM   15  C   UNL A   1       8.085   1.879  24.269  1.00  0.00    -0.021 A 
HETATM   16  C   UNL A   1       7.598   2.612  25.351  1.00  0.00    -0.004 A 
HETATM   17  C   UNL A   1       6.460   2.176  26.033  1.00  0.00    -0.000 A 
HETATM   18  C   UNL A   1       5.811   1.009  25.631  1.00  0.00    -0.000 A 
HETATM   19  C   UNL A   1       6.298   0.277  24.549  1.00  0.00    -0.000 A 
HETATM   20  C   UNL A   1       7.435   0.712  23.867  1.00  0.00    -0.004 A 
ENDBRANCH  14  15
ENDBRANCH  12  14
ENDBRANCH  10  12
ENDBRANCH   8   9
ENDBRANCH   7   8
BRANCH   3  21
HETATM   21  C   UNL A   1      15.338   6.037  20.199  1.00  0.00    -0.002 A 
HETATM   22  C   UNL A   1      15.657   7.310  20.670  1.00  0.00    -0.003 A 
HETATM   23  C   UNL A   1      16.022   8.314  19.773  1.00  0.00    -0.000 A 
HETATM   24  C   UNL A   1      16.066   8.045  18.405  1.00  0.00    -0.000 A 
HETATM   25  C   UNL A   1      15.748   6.771  17.934  1.00  0.00    -0.000 A 
HETATM   26  C   UNL A   1      15.383   5.767  18.831  1.00  0.00    -0.003 A 
ENDBRANCH   3  21
BRANCH   4  27
HETATM   27  C   UNL A   1      14.133   6.295  24.085  1.00  0.00     0.207 C 
HETATM   28  O   UNL A   1      14.071   6.138  25.430  1.00  0.00    -0.646 OA
HETATM   29  O   UNL A   1      14.293   7.369  23.524  1.00  0.00    -0.646 OA
ENDBRANCH   4  27
TORSDOF 7
ENDMDL
MODEL 20
REMARK VINA RESULT:      -5.5      5.891     10.660
REMARK  7 active torsions:
REMARK  status: ('A' for Active; 'I' for Inactive)
REMARK       I    between atoms: N_6  and  C_13 
REMARK    1  A    between atoms: N_7  and  C_15 
REMARK       I    between atoms: N_7  and  C_21 
REMARK    2  A    between atoms: C_8  and  C_12 
REMARK    3  A    between atoms: C_9  and  C_14 
REMARK    4  A    between atoms: C_13  and  C_15 
REMARK    5  A    between atoms: C_21  and  C_22 
REMARK    6  A    between atoms: C_22  and  C_23 
REMARK    7  A    between atoms: C_23  and  C_24 
ROOT
HETATM    1  O   UNL A   1      11.553   4.964  20.194  1.00  0.00    -0.270 OA
HETATM    2  N   UNL A   1      13.250   5.034  21.771  1.00  0.00    -0.309 N 
HETATM    3  C   UNL A   1      14.353   5.023  20.794  1.00  0.00     0.107 C 
HETATM    4  C   UNL A   1      13.748   4.788  23.124  1.00  0.00     0.172 C 
HETATM    5  C   UNL A   1      15.627   4.947  21.646  1.00  0.00     0.029 C 
HETATM    6  C   UNL A   1      15.162   4.256  22.924  1.00  0.00     0.036 C 
HETATM    7  C   UNL A   1      11.919   5.003  21.370  1.00  0.00     0.259 C 
ENDROOT
BRANCH   7   8
HETATM    8  C   UNL A   1      10.890   5.020  22.474  1.00  0.00     0.216 C 
BRANCH   8   9
HETATM    9  N   UNL A   1      10.047   3.898  22.226  1.00  0.00    -0.227 NA
HETATM   10  C   UNL A   1      10.318   2.617  22.712  1.00  0.00     0.263 C 
HETATM   11  O   UNL A   1      11.301   2.333  23.395  1.00  0.00    -0.270 OA
BRANCH  10  12
HETATM   12  C   UNL A   1       9.282   1.580  22.292  1.00  0.00     0.142 C 
HETATM   13  S   UNL A   1       7.820   1.831  23.360  1.00  0.00    -0.073 SA
BRANCH  12  14
HETATM   14  C   UNL A   1       8.875   1.730  20.820  1.00  0.00     0.048 C 
BRANCH  14  15
HETATM   15  C   UNL A   1       9.067   0.447  20.041  1.00  0.00    -0.021 A 
HETATM   16  C   UNL A   1       8.426   0.274  18.814  1.00  0.00    -0.004 A 
HETATM   17  C   UNL A   1       8.603  -0.909  18.096  1.00  0.00    -0.000 A 
HETATM   18  C   UNL A   1       9.421  -1.918  18.604  1.00  0.00    -0.000 A 
HETATM   19  C   UNL A   1      10.062  -1.745  19.831  1.00  0.00    -0.000 A 
HETATM   20  C   UNL A   1       9.885  -0.562  20.550  1.00  0.00    -0.004 A 
ENDBRANCH  14  15
ENDBRANCH  12  14
ENDBRANCH  10  12
ENDBRANCH   8   9
ENDBRANCH   7   8
BRANCH   3  21
HETATM   21  C   UNL A   1      14.381   6.199  19.843  1.00  0.00    -0.002 A 
HETATM   22  C   UNL A   1      14.280   5.987  18.468  1.00  0.00    -0.003 A 
HETATM   23  C   UNL A   1      14.306   7.071  17.591  1.00  0.00    -0.000 A 
HETATM   24  C   UNL A   1      14.434   8.368  18.089  1.00  0.00    -0.000 A 
HETATM   25  C   UNL A   1      14.535   8.580  19.464  1.00  0.00    -0.000 A 
HETATM   26  C   UNL A   1      14.509   7.496  20.341  1.00  0.00    -0.003 A 
ENDBRANCH   3  21
BRANCH   4  27
HETATM   27  C   UNL A   1      13.748   6.088  23.869  1.00  0.00     0.207 C 
HETATM   28  O   UNL A   1      13.763   5.873  25.207  1.00  0.00    -0.646 OA
HETATM   29  O   UNL A   1      13.739   7.194  23.350  1.00  0.00    -0.646 OA
ENDBRANCH   4  27
TORSDOF 7
ENDMDL
