MODEL 1
REMARK VINA RESULT:      -7.8      0.000      0.000
REMARK  9 active torsions:
REMARK  status: ('A' for Active; 'I' for Inactive)
REMARK       I    between atoms: N_7  and  C_16 
REMARK       I    between atoms: N_8  and  C_15 
REMARK    1  A    between atoms: N_8  and  C_20 
REMARK    2  A    between atoms: N_9  and  C_18 
REMARK       I    between atoms: N_9  and  C_23 
REMARK    3  A    between atoms: C_11  and  C_15 
REMARK    4  A    between atoms: C_16  and  C_17 
REMARK    5  A    between atoms: C_17  and  C_18 
REMARK    6  A    between atoms: C_18  and  C_19 
REMARK    7  A    between atoms: C_19  and  C_21 
REMARK    8  A    between atoms: C_20  and  C_22 
REMARK    9  A    between atoms: C_23  and  C_27 
ROOT
HETATM    1  O   UNL A   1      13.133   2.601  23.416  1.00  0.00    -0.211 OA
HETATM    2  C   UNL A   1      12.047   1.702  23.323  1.00  0.00     0.253 C 
ENDROOT
BRANCH   2   3
HETATM    3  C   UNL A   1      12.396   0.698  22.252  1.00  0.00     0.267 C 
HETATM    4  O   UNL A   1      12.201   0.968  21.065  1.00  0.00    -0.269 OA
HETATM    5  N   UNL A   1      12.934  -0.504  22.703  1.00  0.00    -0.301 N 
HETATM    6  C   UNL A   1      13.290  -1.575  21.767  1.00  0.00     0.174 C 
HETATM    7  C   UNL A   1      13.167  -0.832  24.106  1.00  0.00     0.164 C 
HETATM    8  C   UNL A   1      14.432  -2.407  22.376  1.00  0.00     0.069 C 
HETATM    9  S   UNL A   1      14.074  -2.395  24.168  1.00  0.00    -0.115 SA
HETATM   10  C   UNL A   1      14.508  -3.844  21.857  1.00  0.00     0.013 C 
HETATM   11  C   UNL A   1      15.781  -1.706  22.151  1.00  0.00     0.013 C 
BRANCH   6  12
HETATM   12  C   UNL A   1      12.005  -2.328  21.548  1.00  0.00     0.273 C 
HETATM   13  O   UNL A   1      11.395  -2.852  22.476  1.00  0.00    -0.269 OA
HETATM   14  N   UNL A   1      11.640  -2.365  20.214  1.00  0.00    -0.232 NA
BRANCH  14  15
HETATM   15  C   UNL A   1      10.459  -3.047  19.735  1.00  0.00     0.155 C 
BRANCH  15  16
HETATM   16  C   UNL A   1       9.485  -2.101  19.094  1.00  0.00    -0.002 A 
HETATM   17  C   UNL A   1       9.478  -1.907  17.713  1.00  0.00    -0.024 A 
HETATM   18  C   UNL A   1       8.567  -1.022  17.138  1.00  0.00    -0.004 A 
HETATM   19  C   UNL A   1      10.437  -2.636  16.829  1.00  0.00     0.031 C 
HETATM   20  C   UNL A   1       7.663  -0.330  17.944  1.00  0.00    -0.000 A 
HETATM   21  C   UNL A   1       7.670  -0.523  19.325  1.00  0.00    -0.000 A 
HETATM   22  C   UNL A   1       8.582  -1.408  19.900  1.00  0.00    -0.003 A 
ENDBRANCH  15  16
ENDBRANCH  14  15
ENDBRANCH   6  12
ENDBRANCH   2   3
BRANCH   2  23
HETATM   23  C   UNL A   1      10.745   2.427  22.971  1.00  0.00     0.150 C 
BRANCH  23  24
HETATM   24  N   UNL A   1       9.677   1.877  23.781  1.00  0.00    -0.233 NA
HETATM   25  C   UNL A   1       8.407   1.656  23.279  1.00  0.00     0.275 C 
HETATM   26  O   UNL A   1       8.053   1.894  22.127  1.00  0.00    -0.266 OA
BRANCH  25  27
HETATM   27  C   UNL A   1       7.417   1.111  24.244  1.00  0.00     0.056 A 
HETATM   28  C   UNL A   1       7.232  -0.264  24.392  1.00  0.00     0.008 A 
HETATM   29  C   UNL A   1       6.297  -0.747  25.306  1.00  0.00     0.127 A 
HETATM   30  C   UNL A   1       8.034  -1.227  23.574  1.00  0.00     0.033 C 
HETATM   31  O   UNL A   1       6.102  -2.086  25.464  1.00  0.00    -0.191 OA
HETATM   32  C   UNL A   1       5.546   0.144  26.073  1.00  0.00     0.027 A 
HETATM   33  C   UNL A   1       5.731   1.519  25.926  1.00  0.00     0.002 A 
HETATM   34  C   UNL A   1       6.667   2.002  25.011  1.00  0.00     0.005 A 
ENDBRANCH  25  27
ENDBRANCH  23  24
BRANCH  23  35
HETATM   35  C   UNL A   1      10.823   3.955  23.161  1.00  0.00     0.054 C 
BRANCH  35  36
HETATM   36  C   UNL A   1      10.362   4.723  21.943  1.00  0.00    -0.020 A 
HETATM   37  C   UNL A   1      10.123   6.094  22.032  1.00  0.00    -0.004 A 
HETATM   38  C   UNL A   1       9.698   6.803  20.909  1.00  0.00    -0.000 A 
HETATM   39  C   UNL A   1       9.512   6.140  19.695  1.00  0.00    -0.000 A 
HETATM   40  C   UNL A   1       9.751   4.769  19.606  1.00  0.00    -0.000 A 
HETATM   41  C   UNL A   1      10.176   4.060  20.730  1.00  0.00    -0.004 A 
ENDBRANCH  35  36
ENDBRANCH  23  35
ENDBRANCH   2  23
TORSDOF 9
ENDMDL
MODEL 2
REMARK VINA RESULT:      -7.6      2.828      6.637
REMARK  9 active torsions:
REMARK  status: ('A' for Active; 'I' for Inactive)
REMARK       I    between atoms: N_7  and  C_16 
REMARK       I    between atoms: N_8  and  C_15 
REMARK    1  A    between atoms: N_8  and  C_20 
REMARK    2  A    between atoms: N_9  and  C_18 
REMARK       I    between atoms: N_9  and  C_23 
REMARK    3  A    between atoms: C_11  and  C_15 
REMARK    4  A    between atoms: C_16  and  C_17 
REMARK    5  A    between atoms: C_17  and  C_18 
REMARK    6  A    between atoms: C_18  and  C_19 
REMARK    7  A    between atoms: C_19  and  C_21 
REMARK    8  A    between atoms: C_20  and  C_22 
REMARK    9  A    between atoms: C_23  and  C_27 
ROOT
HETATM    1  O   UNL A   1       8.067   0.904  20.480  1.00  0.00    -0.211 OA
HETATM    2  C   UNL A   1       9.071   0.405  21.340  1.00  0.00     0.253 C 
ENDROOT
BRANCH   2   3
HETATM    3  C   UNL A   1       8.828  -1.077  21.490  1.00  0.00     0.267 C 
HETATM    4  O   UNL A   1       7.687  -1.500  21.687  1.00  0.00    -0.269 OA
HETATM    5  N   UNL A   1       9.956  -1.887  21.388  1.00  0.00    -0.301 N 
HETATM    6  C   UNL A   1       9.862  -3.341  21.542  1.00  0.00     0.174 C 
HETATM    7  C   UNL A   1      11.310  -1.395  21.155  1.00  0.00     0.164 C 
HETATM    8  C   UNL A   1      10.991  -4.001  20.730  1.00  0.00     0.069 C 
HETATM    9  S   UNL A   1      12.382  -2.826  20.882  1.00  0.00    -0.115 SA
HETATM   10  C   UNL A   1      11.404  -5.383  21.237  1.00  0.00     0.013 C 
HETATM   11  C   UNL A   1      10.598  -4.092  19.247  1.00  0.00     0.013 C 
BRANCH   6  12
HETATM   12  C   UNL A   1       9.935  -3.570  23.028  1.00  0.00     0.273 C 
HETATM   13  O   UNL A   1      10.912  -3.229  23.689  1.00  0.00    -0.269 OA
HETATM   14  N   UNL A   1       8.809  -4.210  23.516  1.00  0.00    -0.232 NA
BRANCH  14  15
HETATM   15  C   UNL A   1       8.641  -4.566  24.906  1.00  0.00     0.155 C 
BRANCH  15  16
HETATM   16  C   UNL A   1       7.244  -5.027  25.204  1.00  0.00    -0.002 A 
HETATM   17  C   UNL A   1       6.233  -4.110  25.493  1.00  0.00    -0.024 A 
HETATM   18  C   UNL A   1       4.943  -4.559  25.769  1.00  0.00    -0.004 A 
HETATM   19  C   UNL A   1       6.509  -2.642  25.514  1.00  0.00     0.031 C 
HETATM   20  C   UNL A   1       4.661  -5.926  25.756  1.00  0.00    -0.000 A 
HETATM   21  C   UNL A   1       5.672  -6.843  25.468  1.00  0.00    -0.000 A 
HETATM   22  C   UNL A   1       6.963  -6.393  25.192  1.00  0.00    -0.003 A 
ENDBRANCH  15  16
ENDBRANCH  14  15
ENDBRANCH   6  12
ENDBRANCH   2   3
BRANCH   2  23
HETATM   23  C   UNL A   1       9.033   1.092  22.708  1.00  0.00     0.150 C 
BRANCH  23  24
HETATM   24  N   UNL A   1      10.258   1.848  22.879  1.00  0.00    -0.233 NA
HETATM   25  C   UNL A   1      10.677   2.794  21.959  1.00  0.00     0.275 C 
HETATM   26  O   UNL A   1      10.078   3.089  20.929  1.00  0.00    -0.266 OA
BRANCH  25  27
HETATM   27  C   UNL A   1      11.967   3.464  22.266  1.00  0.00     0.056 A 
HETATM   28  C   UNL A   1      12.010   4.797  22.675  1.00  0.00     0.008 A 
HETATM   29  C   UNL A   1      13.235   5.399  22.957  1.00  0.00     0.127 A 
HETATM   30  C   UNL A   1      10.747   5.586  22.815  1.00  0.00     0.033 C 
HETATM   31  O   UNL A   1      13.298   6.700  23.358  1.00  0.00    -0.191 OA
HETATM   32  C   UNL A   1      14.418   4.670  22.830  1.00  0.00     0.027 A 
HETATM   33  C   UNL A   1      14.375   3.337  22.421  1.00  0.00     0.002 A 
HETATM   34  C   UNL A   1      13.149   2.735  22.140  1.00  0.00     0.005 A 
ENDBRANCH  25  27
ENDBRANCH  23  24
BRANCH  23  35
HETATM   35  C   UNL A   1       7.810   2.012  22.899  1.00  0.00     0.054 C 
BRANCH  35  36
HETATM   36  C   UNL A   1       7.184   1.880  24.269  1.00  0.00    -0.020 A 
HETATM   37  C   UNL A   1       6.107   1.017  24.464  1.00  0.00    -0.004 A 
HETATM   38  C   UNL A   1       5.529   0.896  25.727  1.00  0.00    -0.000 A 
HETATM   39  C   UNL A   1       6.030   1.638  26.797  1.00  0.00    -0.000 A 
HETATM   40  C   UNL A   1       7.108   2.502  26.602  1.00  0.00    -0.000 A 
HETATM   41  C   UNL A   1       7.685   2.623  25.338  1.00  0.00    -0.004 A 
ENDBRANCH  35  36
ENDBRANCH  23  35
ENDBRANCH   2  23
TORSDOF 9
ENDMDL
MODEL 3
REMARK VINA RESULT:      -7.5      2.877      6.383
REMARK  9 active torsions:
REMARK  status: ('A' for Active; 'I' for Inactive)
REMARK       I    between atoms: N_7  and  C_16 
REMARK       I    between atoms: N_8  and  C_15 
REMARK    1  A    between atoms: N_8  and  C_20 
REMARK    2  A    between atoms: N_9  and  C_18 
REMARK       I    between atoms: N_9  and  C_23 
REMARK    3  A    between atoms: C_11  and  C_15 
REMARK    4  A    between atoms: C_16  and  C_17 
REMARK    5  A    between atoms: C_17  and  C_18 
REMARK    6  A    between atoms: C_18  and  C_19 
REMARK    7  A    between atoms: C_19  and  C_21 
REMARK    8  A    between atoms: C_20  and  C_22 
REMARK    9  A    between atoms: C_23  and  C_27 
ROOT
HETATM    1  O   UNL A   1       8.933  -0.365  19.626  1.00  0.00    -0.211 OA
HETATM    2  C   UNL A   1       9.720  -0.509  20.791  1.00  0.00     0.253 C 
ENDROOT
BRANCH   2   3
HETATM    3  C   UNL A   1       9.623  -1.953  21.213  1.00  0.00     0.267 C 
HETATM    4  O   UNL A   1       8.523  -2.502  21.293  1.00  0.00    -0.269 OA
HETATM    5  N   UNL A   1      10.834  -2.584  21.491  1.00  0.00    -0.301 N 
HETATM    6  C   UNL A   1      10.878  -3.979  21.937  1.00  0.00     0.174 C 
HETATM    7  C   UNL A   1      12.141  -1.942  21.399  1.00  0.00     0.164 C 
HETATM    8  C   UNL A   1      12.217  -4.598  21.500  1.00  0.00     0.069 C 
HETATM    9  S   UNL A   1      13.403  -3.215  21.637  1.00  0.00    -0.115 SA
HETATM   10  C   UNL A   1      12.673  -5.778  22.360  1.00  0.00     0.013 C 
HETATM   11  C   UNL A   1      12.150  -5.030  20.027  1.00  0.00     0.013 C 
BRANCH   6  12
HETATM   12  C   UNL A   1      10.671  -3.906  23.427  1.00  0.00     0.273 C 
HETATM   13  O   UNL A   1      11.480  -3.354  24.167  1.00  0.00    -0.269 OA
HETATM   14  N   UNL A   1       9.506  -4.540  23.825  1.00  0.00    -0.232 NA
BRANCH  14  15
HETATM   15  C   UNL A   1       9.089  -4.632  25.206  1.00  0.00     0.155 C 
BRANCH  15  16
HETATM   16  C   UNL A   1       7.625  -4.940  25.331  1.00  0.00    -0.002 A 
HETATM   17  C   UNL A   1       7.160  -6.253  25.250  1.00  0.00    -0.024 A 
HETATM   18  C   UNL A   1       5.796  -6.517  25.366  1.00  0.00    -0.004 A 
HETATM   19  C   UNL A   1       8.104  -7.392  25.038  1.00  0.00     0.031 C 
HETATM   20  C   UNL A   1       4.896  -5.469  25.563  1.00  0.00    -0.000 A 
HETATM   21  C   UNL A   1       5.361  -4.157  25.643  1.00  0.00    -0.000 A 
HETATM   22  C   UNL A   1       6.726  -3.893  25.527  1.00  0.00    -0.003 A 
ENDBRANCH  15  16
ENDBRANCH  14  15
ENDBRANCH   6  12
ENDBRANCH   2   3
BRANCH   2  23
HETATM   23  C   UNL A   1       9.233   0.409  21.916  1.00  0.00     0.150 C 
BRANCH  23  24
HETATM   24  N   UNL A   1       9.651   1.765  21.618  1.00  0.00    -0.233 NA
HETATM   25  C   UNL A   1      10.569   2.444  22.400  1.00  0.00     0.275 C 
HETATM   26  O   UNL A   1      11.115   1.989  23.402  1.00  0.00    -0.266 OA
BRANCH  25  27
HETATM   27  C   UNL A   1      10.872   3.835  21.977  1.00  0.00     0.056 A 
HETATM   28  C   UNL A   1      11.972   4.122  21.168  1.00  0.00     0.008 A 
HETATM   29  C   UNL A   1      12.232   5.437  20.785  1.00  0.00     0.127 A 
HETATM   30  C   UNL A   1      12.877   3.024  20.706  1.00  0.00     0.033 C 
HETATM   31  O   UNL A   1      13.301   5.737  19.997  1.00  0.00    -0.191 OA
HETATM   32  C   UNL A   1      11.392   6.467  21.212  1.00  0.00     0.027 A 
HETATM   33  C   UNL A   1      10.292   6.180  22.020  1.00  0.00     0.002 A 
HETATM   34  C   UNL A   1      10.032   4.865  22.402  1.00  0.00     0.005 A 
ENDBRANCH  25  27
ENDBRANCH  23  24
BRANCH  23  35
HETATM   35  C   UNL A   1       7.707   0.358  22.132  1.00  0.00     0.054 C 
BRANCH  35  36
HETATM   36  C   UNL A   1       7.306   0.653  23.560  1.00  0.00    -0.020 A 
HETATM   37  C   UNL A   1       7.315   1.966  24.030  1.00  0.00    -0.004 A 
HETATM   38  C   UNL A   1       6.945   2.238  25.347  1.00  0.00    -0.000 A 
HETATM   39  C   UNL A   1       6.564   1.196  26.193  1.00  0.00    -0.000 A 
HETATM   40  C   UNL A   1       6.555  -0.116  25.723  1.00  0.00    -0.000 A 
HETATM   41  C   UNL A   1       6.926  -0.388  24.406  1.00  0.00    -0.004 A 
ENDBRANCH  35  36
ENDBRANCH  23  35
ENDBRANCH   2  23
TORSDOF 9
ENDMDL
MODEL 4
REMARK VINA RESULT:      -7.2      2.467      5.982
REMARK  9 active torsions:
REMARK  status: ('A' for Active; 'I' for Inactive)
REMARK       I    between atoms: N_7  and  C_16 
REMARK       I    between atoms: N_8  and  C_15 
REMARK    1  A    between atoms: N_8  and  C_20 
REMARK    2  A    between atoms: N_9  and  C_18 
REMARK       I    between atoms: N_9  and  C_23 
REMARK    3  A    between atoms: C_11  and  C_15 
REMARK    4  A    between atoms: C_16  and  C_17 
REMARK    5  A    between atoms: C_17  and  C_18 
REMARK    6  A    between atoms: C_18  and  C_19 
REMARK    7  A    between atoms: C_19  and  C_21 
REMARK    8  A    between atoms: C_20  and  C_22 
REMARK    9  A    between atoms: C_23  and  C_27 
ROOT
HETATM    1  O   UNL A   1       9.614   3.951  19.457  1.00  0.00    -0.211 OA
HETATM    2  C   UNL A   1       9.979   3.348  20.682  1.00  0.00     0.253 C 
ENDROOT
BRANCH   2   3
HETATM    3  C   UNL A   1      11.477   3.468  20.804  1.00  0.00     0.267 C 
HETATM    4  O   UNL A   1      12.213   2.813  20.063  1.00  0.00    -0.269 OA
HETATM    5  N   UNL A   1      11.935   4.346  21.783  1.00  0.00    -0.301 N 
HETATM    6  C   UNL A   1      13.369   4.534  22.024  1.00  0.00     0.174 C 
HETATM    7  C   UNL A   1      11.072   5.125  22.665  1.00  0.00     0.164 C 
HETATM    8  C   UNL A   1      13.598   5.953  22.575  1.00  0.00     0.069 C 
HETATM    9  S   UNL A   1      12.117   6.268  23.598  1.00  0.00    -0.115 SA
HETATM   10  C   UNL A   1      14.868   6.103  23.414  1.00  0.00     0.013 C 
HETATM   11  C   UNL A   1      13.616   6.974  21.427  1.00  0.00     0.013 C 
BRANCH   6  12
HETATM   12  C   UNL A   1      13.743   3.421  22.966  1.00  0.00     0.273 C 
HETATM   13  O   UNL A   1      13.179   3.269  24.046  1.00  0.00    -0.269 OA
HETATM   14  N   UNL A   1      14.780   2.647  22.476  1.00  0.00    -0.232 NA
BRANCH  14  15
HETATM   15  C   UNL A   1      15.343   1.529  23.199  1.00  0.00     0.155 C 
BRANCH  15  16
HETATM   16  C   UNL A   1      14.503   0.292  23.063  1.00  0.00    -0.002 A 
HETATM   17  C   UNL A   1      14.065  -0.404  24.190  1.00  0.00    -0.024 A 
HETATM   18  C   UNL A   1      13.288  -1.552  24.041  1.00  0.00    -0.004 A 
HETATM   19  C   UNL A   1      14.415   0.061  25.565  1.00  0.00     0.031 C 
HETATM   20  C   UNL A   1      12.949  -2.006  22.766  1.00  0.00    -0.000 A 
HETATM   21  C   UNL A   1      13.388  -1.311  21.639  1.00  0.00    -0.000 A 
HETATM   22  C   UNL A   1      14.165  -0.162  21.788  1.00  0.00    -0.003 A 
ENDBRANCH  15  16
ENDBRANCH  14  15
ENDBRANCH   6  12
ENDBRANCH   2   3
BRANCH   2  23
HETATM   23  C   UNL A   1       9.556   1.877  20.733  1.00  0.00     0.150 C 
BRANCH  23  24
HETATM   24  N   UNL A   1       8.637   1.699  21.840  1.00  0.00    -0.233 NA
HETATM   25  C   UNL A   1       9.073   1.452  23.129  1.00  0.00     0.275 C 
HETATM   26  O   UNL A   1      10.249   1.356  23.470  1.00  0.00    -0.266 OA
BRANCH  25  27
HETATM   27  C   UNL A   1       8.006   1.268  24.146  1.00  0.00     0.056 A 
HETATM   28  C   UNL A   1       7.440   0.015  24.382  1.00  0.00     0.008 A 
HETATM   29  C   UNL A   1       6.440  -0.129  25.343  1.00  0.00     0.127 A 
HETATM   30  C   UNL A   1       7.901  -1.181  23.610  1.00  0.00     0.033 C 
HETATM   31  O   UNL A   1       5.875  -1.344  25.587  1.00  0.00    -0.191 OA
HETATM   32  C   UNL A   1       6.005   0.981  26.068  1.00  0.00     0.027 A 
HETATM   33  C   UNL A   1       6.570   2.234  25.833  1.00  0.00     0.002 A 
HETATM   34  C   UNL A   1       7.571   2.376  24.872  1.00  0.00     0.005 A 
ENDBRANCH  25  27
ENDBRANCH  23  24
BRANCH  23  35
HETATM   35  C   UNL A   1       8.912   1.379  19.423  1.00  0.00     0.054 C 
BRANCH  35  36
HETATM   36  C   UNL A   1       9.279  -0.051  19.096  1.00  0.00    -0.020 A 
HETATM   37  C   UNL A   1       9.027  -0.562  17.823  1.00  0.00    -0.004 A 
HETATM   38  C   UNL A   1       9.365  -1.880  17.520  1.00  0.00    -0.000 A 
HETATM   39  C   UNL A   1       9.956  -2.689  18.492  1.00  0.00    -0.000 A 
HETATM   40  C   UNL A   1      10.208  -2.179  19.765  1.00  0.00    -0.000 A 
HETATM   41  C   UNL A   1       9.869  -0.859  20.067  1.00  0.00    -0.004 A 
ENDBRANCH  35  36
ENDBRANCH  23  35
ENDBRANCH   2  23
TORSDOF 9
ENDMDL
MODEL 5
REMARK VINA RESULT:      -7.1      3.305      6.725
REMARK  9 active torsions:
REMARK  status: ('A' for Active; 'I' for Inactive)
REMARK       I    between atoms: N_7  and  C_16 
REMARK       I    between atoms: N_8  and  C_15 
REMARK    1  A    between atoms: N_8  and  C_20 
REMARK    2  A    between atoms: N_9  and  C_18 
REMARK       I    between atoms: N_9  and  C_23 
REMARK    3  A    between atoms: C_11  and  C_15 
REMARK    4  A    between atoms: C_16  and  C_17 
REMARK    5  A    between atoms: C_17  and  C_18 
REMARK    6  A    between atoms: C_18  and  C_19 
REMARK    7  A    between atoms: C_19  and  C_21 
REMARK    8  A    between atoms: C_20  and  C_22 
REMARK    9  A    between atoms: C_23  and  C_27 
ROOT
HETATM    1  O   UNL A   1       7.200  -4.310  25.729  1.00  0.00    -0.211 OA
HETATM    2  C   UNL A   1       7.893  -4.160  24.507  1.00  0.00     0.253 C 
ENDROOT
BRANCH   2   3
HETATM    3  C   UNL A   1       9.315  -4.602  24.748  1.00  0.00     0.267 C 
HETATM    4  O   UNL A   1      10.073  -3.906  25.427  1.00  0.00    -0.269 OA
HETATM    5  N   UNL A   1       9.680  -5.813  24.164  1.00  0.00    -0.301 N 
HETATM    6  C   UNL A   1      11.039  -6.342  24.299  1.00  0.00     0.174 C 
HETATM    7  C   UNL A   1       8.790  -6.643  23.359  1.00  0.00     0.164 C 
HETATM    8  C   UNL A   1      10.986  -7.877  24.211  1.00  0.00     0.069 C 
HETATM    9  S   UNL A   1       9.643  -8.200  23.015  1.00  0.00    -0.115 SA
HETATM   10  C   UNL A   1      12.288  -8.525  23.739  1.00  0.00     0.013 C 
HETATM   11  C   UNL A   1      10.576  -8.475  25.567  1.00  0.00     0.013 C 
BRANCH   6  12
HETATM   12  C   UNL A   1      11.817  -5.672  23.197  1.00  0.00     0.273 C 
HETATM   13  O   UNL A   1      11.436  -5.695  22.030  1.00  0.00    -0.269 OA
HETATM   14  N   UNL A   1      12.977  -5.077  23.661  1.00  0.00    -0.232 NA
BRANCH  14  15
HETATM   15  C   UNL A   1      13.912  -4.388  22.801  1.00  0.00     0.155 C 
BRANCH  15  16
HETATM   16  C   UNL A   1      13.712  -2.901  22.831  1.00  0.00    -0.002 A 
HETATM   17  C   UNL A   1      13.643  -2.164  21.649  1.00  0.00    -0.024 A 
HETATM   18  C   UNL A   1      13.460  -0.782  21.699  1.00  0.00    -0.004 A 
HETATM   19  C   UNL A   1      13.764  -2.830  20.318  1.00  0.00     0.031 C 
HETATM   20  C   UNL A   1      13.346  -0.137  22.931  1.00  0.00    -0.000 A 
HETATM   21  C   UNL A   1      13.416  -0.875  24.113  1.00  0.00    -0.000 A 
HETATM   22  C   UNL A   1      13.599  -2.257  24.063  1.00  0.00    -0.003 A 
ENDBRANCH  15  16
ENDBRANCH  14  15
ENDBRANCH   6  12
ENDBRANCH   2   3
BRANCH   2  23
HETATM   23  C   UNL A   1       7.862  -2.710  24.016  1.00  0.00     0.150 C 
BRANCH  23  24
HETATM   24  N   UNL A   1       8.122  -2.700  22.590  1.00  0.00    -0.233 NA
HETATM   25  C   UNL A   1       9.275  -2.156  22.053  1.00  0.00     0.275 C 
HETATM   26  O   UNL A   1      10.179  -1.636  22.703  1.00  0.00    -0.266 OA
BRANCH  25  27
HETATM   27  C   UNL A   1       9.380  -2.200  20.572  1.00  0.00     0.056 A 
HETATM   28  C   UNL A   1       8.749  -1.246  19.773  1.00  0.00     0.008 A 
HETATM   29  C   UNL A   1       8.864  -1.312  18.385  1.00  0.00     0.127 A 
HETATM   30  C   UNL A   1       7.948  -0.147  20.398  1.00  0.00     0.033 C 
HETATM   31  O   UNL A   1       8.255  -0.390  17.589  1.00  0.00    -0.191 OA
HETATM   32  C   UNL A   1       9.610  -2.333  17.795  1.00  0.00     0.027 A 
HETATM   33  C   UNL A   1      10.240  -3.287  18.593  1.00  0.00     0.002 A 
HETATM   34  C   UNL A   1      10.125  -3.220  19.982  1.00  0.00     0.005 A 
ENDBRANCH  25  27
ENDBRANCH  23  24
BRANCH  23  35
HETATM   35  C   UNL A   1       6.533  -1.989  24.319  1.00  0.00     0.054 C 
BRANCH  35  36
HETATM   36  C   UNL A   1       6.733  -0.589  24.855  1.00  0.00    -0.020 A 
HETATM   37  C   UNL A   1       6.055  -0.178  26.002  1.00  0.00    -0.004 A 
HETATM   38  C   UNL A   1       6.240   1.112  26.497  1.00  0.00    -0.000 A 
HETATM   39  C   UNL A   1       7.103   1.993  25.844  1.00  0.00    -0.000 A 
HETATM   40  C   UNL A   1       7.781   1.582  24.697  1.00  0.00    -0.000 A 
HETATM   41  C   UNL A   1       7.596   0.291  24.202  1.00  0.00    -0.004 A 
ENDBRANCH  35  36
ENDBRANCH  23  35
ENDBRANCH   2  23
TORSDOF 9
ENDMDL
MODEL 6
REMARK VINA RESULT:      -7.1      3.847      6.924
REMARK  9 active torsions:
REMARK  status: ('A' for Active; 'I' for Inactive)
REMARK       I    between atoms: N_7  and  C_16 
REMARK       I    between atoms: N_8  and  C_15 
REMARK    1  A    between atoms: N_8  and  C_20 
REMARK    2  A    between atoms: N_9  and  C_18 
REMARK       I    between atoms: N_9  and  C_23 
REMARK    3  A    between atoms: C_11  and  C_15 
REMARK    4  A    between atoms: C_16  and  C_17 
REMARK    5  A    between atoms: C_17  and  C_18 
REMARK    6  A    between atoms: C_18  and  C_19 
REMARK    7  A    between atoms: C_19  and  C_21 
REMARK    8  A    between atoms: C_20  and  C_22 
REMARK    9  A    between atoms: C_23  and  C_27 
ROOT
HETATM    1  O   UNL A   1       6.505  -3.150  25.926  1.00  0.00    -0.211 OA
HETATM    2  C   UNL A   1       7.129  -3.309  24.668  1.00  0.00     0.253 C 
ENDROOT
BRANCH   2   3
HETATM    3  C   UNL A   1       8.397  -4.093  24.900  1.00  0.00     0.267 C 
HETATM    4  O   UNL A   1       9.494  -3.547  24.770  1.00  0.00    -0.269 OA
HETATM    5  N   UNL A   1       8.225  -5.427  25.260  1.00  0.00    -0.301 N 
HETATM    6  C   UNL A   1       9.376  -6.306  25.487  1.00  0.00     0.174 C 
HETATM    7  C   UNL A   1       6.930  -6.082  25.415  1.00  0.00     0.164 C 
HETATM    8  C   UNL A   1       8.973  -7.400  26.492  1.00  0.00     0.069 C 
HETATM    9  S   UNL A   1       7.220  -7.731  26.100  1.00  0.00    -0.115 SA
HETATM   10  C   UNL A   1       9.795  -8.685  26.383  1.00  0.00     0.013 C 
HETATM   11  C   UNL A   1       9.051  -6.859  27.929  1.00  0.00     0.013 C 
BRANCH   6  12
HETATM   12  C   UNL A   1       9.744  -6.810  24.117  1.00  0.00     0.273 C 
HETATM   13  O   UNL A   1       8.997  -7.543  23.474  1.00  0.00    -0.269 OA
HETATM   14  N   UNL A   1      10.993  -6.369  23.715  1.00  0.00    -0.232 NA
BRANCH  14  15
HETATM   15  C   UNL A   1      11.589  -6.731  22.450  1.00  0.00     0.155 C 
BRANCH  15  16
HETATM   16  C   UNL A   1      12.336  -5.585  21.832  1.00  0.00    -0.002 A 
HETATM   17  C   UNL A   1      12.796  -5.655  20.517  1.00  0.00    -0.024 A 
HETATM   18  C   UNL A   1      13.490  -4.579  19.964  1.00  0.00    -0.004 A 
HETATM   19  C   UNL A   1      12.559  -6.871  19.683  1.00  0.00     0.031 C 
HETATM   20  C   UNL A   1      13.723  -3.433  20.724  1.00  0.00    -0.000 A 
HETATM   21  C   UNL A   1      13.264  -3.363  22.039  1.00  0.00    -0.000 A 
HETATM   22  C   UNL A   1      12.570  -4.440  22.593  1.00  0.00    -0.003 A 
ENDBRANCH  15  16
ENDBRANCH  14  15
ENDBRANCH   6  12
ENDBRANCH   2   3
BRANCH   2  23
HETATM   23  C   UNL A   1       7.449  -1.958  24.023  1.00  0.00     0.150 C 
BRANCH  23  24
HETATM   24  N   UNL A   1       7.829  -2.183  22.642  1.00  0.00    -0.233 NA
HETATM   25  C   UNL A   1       8.921  -1.559  22.066  1.00  0.00     0.275 C 
HETATM   26  O   UNL A   1       9.666  -0.769  22.638  1.00  0.00    -0.266 OA
BRANCH  25  27
HETATM   27  C   UNL A   1       9.162  -1.876  20.634  1.00  0.00     0.056 A 
HETATM   28  C   UNL A   1       8.599  -1.105  19.618  1.00  0.00     0.008 A 
HETATM   29  C   UNL A   1       8.843  -1.426  18.283  1.00  0.00     0.127 A 
HETATM   30  C   UNL A   1       7.733   0.069  19.950  1.00  0.00     0.033 C 
HETATM   31  O   UNL A   1       8.301  -0.685  17.276  1.00  0.00    -0.191 OA
HETATM   32  C   UNL A   1       9.649  -2.519  17.964  1.00  0.00     0.027 A 
HETATM   33  C   UNL A   1      10.213  -3.290  18.980  1.00  0.00     0.002 A 
HETATM   34  C   UNL A   1       9.969  -2.968  20.315  1.00  0.00     0.005 A 
ENDBRANCH  25  27
ENDBRANCH  23  24
BRANCH  23  35
HETATM   35  C   UNL A   1       6.282  -0.952  24.095  1.00  0.00     0.054 C 
BRANCH  35  36
HETATM   36  C   UNL A   1       6.616   0.280  24.905  1.00  0.00    -0.020 A 
HETATM   37  C   UNL A   1       6.152   0.402  26.214  1.00  0.00    -0.004 A 
HETATM   38  C   UNL A   1       6.461   1.539  26.960  1.00  0.00    -0.000 A 
HETATM   39  C   UNL A   1       7.235   2.554  26.397  1.00  0.00    -0.000 A 
HETATM   40  C   UNL A   1       7.700   2.432  25.088  1.00  0.00    -0.000 A 
HETATM   41  C   UNL A   1       7.390   1.295  24.341  1.00  0.00    -0.004 A 
ENDBRANCH  35  36
ENDBRANCH  23  35
ENDBRANCH   2  23
TORSDOF 9
ENDMDL
MODEL 7
REMARK VINA RESULT:      -7.0      2.625      4.376
REMARK  9 active torsions:
REMARK  status: ('A' for Active; 'I' for Inactive)
REMARK       I    between atoms: N_7  and  C_16 
REMARK       I    between atoms: N_8  and  C_15 
REMARK    1  A    between atoms: N_8  and  C_20 
REMARK    2  A    between atoms: N_9  and  C_18 
REMARK       I    between atoms: N_9  and  C_23 
REMARK    3  A    between atoms: C_11  and  C_15 
REMARK    4  A    between atoms: C_16  and  C_17 
REMARK    5  A    between atoms: C_17  and  C_18 
REMARK    6  A    between atoms: C_18  and  C_19 
REMARK    7  A    between atoms: C_19  and  C_21 
REMARK    8  A    between atoms: C_20  and  C_22 
REMARK    9  A    between atoms: C_23  and  C_27 
ROOT
HETATM    1  O   UNL A   1      12.980   1.358  21.504  1.00  0.00    -0.211 OA
HETATM    2  C   UNL A   1      11.896   0.793  22.212  1.00  0.00     0.253 C 
ENDROOT
BRANCH   2   3
HETATM    3  C   UNL A   1      11.454  -0.427  21.443  1.00  0.00     0.267 C 
HETATM    4  O   UNL A   1      10.768  -0.302  20.426  1.00  0.00    -0.269 OA
HETATM    5  N   UNL A   1      11.871  -1.651  21.958  1.00  0.00    -0.301 N 
HETATM    6  C   UNL A   1      11.487  -2.914  21.321  1.00  0.00     0.174 C 
HETATM    7  C   UNL A   1      12.683  -1.809  23.161  1.00  0.00     0.164 C 
HETATM    8  C   UNL A   1      12.573  -3.966  21.609  1.00  0.00     0.069 C 
HETATM    9  S   UNL A   1      13.146  -3.552  23.294  1.00  0.00    -0.115 SA
HETATM   10  C   UNL A   1      12.077  -5.411  21.555  1.00  0.00     0.013 C 
HETATM   11  C   UNL A   1      13.755  -3.791  20.643  1.00  0.00     0.013 C 
BRANCH   6  12
HETATM   12  C   UNL A   1      10.132  -3.230  21.895  1.00  0.00     0.273 C 
HETATM   13  O   UNL A   1       9.108  -3.143  21.223  1.00  0.00    -0.269 OA
HETATM   14  N   UNL A   1      10.199  -3.593  23.229  1.00  0.00    -0.232 NA
BRANCH  14  15
HETATM   15  C   UNL A   1       9.035  -3.923  24.018  1.00  0.00     0.155 C 
BRANCH  15  16
HETATM   16  C   UNL A   1       9.403  -4.603  25.305  1.00  0.00    -0.002 A 
HETATM   17  C   UNL A   1       8.443  -5.281  26.057  1.00  0.00    -0.024 A 
HETATM   18  C   UNL A   1       8.806  -5.904  27.250  1.00  0.00    -0.004 A 
HETATM   19  C   UNL A   1       7.021  -5.353  25.604  1.00  0.00     0.031 C 
HETATM   20  C   UNL A   1      10.128  -5.849  27.693  1.00  0.00    -0.000 A 
HETATM   21  C   UNL A   1      11.087  -5.170  26.942  1.00  0.00    -0.000 A 
HETATM   22  C   UNL A   1      10.724  -4.547  25.748  1.00  0.00    -0.003 A 
ENDBRANCH  15  16
ENDBRANCH  14  15
ENDBRANCH   6  12
ENDBRANCH   2   3
BRANCH   2  23
HETATM   23  C   UNL A   1      10.737   1.783  22.352  1.00  0.00     0.150 C 
BRANCH  23  24
HETATM   24  N   UNL A   1       9.779   1.243  23.298  1.00  0.00    -0.233 NA
HETATM   25  C   UNL A   1       8.477   0.942  22.940  1.00  0.00     0.275 C 
HETATM   26  O   UNL A   1       8.001   1.095  21.818  1.00  0.00    -0.266 OA
BRANCH  25  27
HETATM   27  C   UNL A   1       7.614   0.420  24.030  1.00  0.00     0.056 A 
HETATM   28  C   UNL A   1       7.148   1.256  25.046  1.00  0.00     0.008 A 
HETATM   29  C   UNL A   1       6.338   0.739  26.057  1.00  0.00     0.127 A 
HETATM   30  C   UNL A   1       7.509   2.707  25.057  1.00  0.00     0.033 C 
HETATM   31  O   UNL A   1       5.873   1.538  27.057  1.00  0.00    -0.191 OA
HETATM   32  C   UNL A   1       5.995  -0.614  26.053  1.00  0.00     0.027 A 
HETATM   33  C   UNL A   1       6.461  -1.449  25.038  1.00  0.00     0.002 A 
HETATM   34  C   UNL A   1       7.270  -0.931  24.027  1.00  0.00     0.005 A 
ENDBRANCH  25  27
ENDBRANCH  23  24
BRANCH  23  35
HETATM   35  C   UNL A   1      11.184   3.191  22.795  1.00  0.00     0.054 C 
BRANCH  35  36
HETATM   36  C   UNL A   1      10.591   4.291  21.943  1.00  0.00    -0.020 A 
HETATM   37  C   UNL A   1      10.485   5.586  22.451  1.00  0.00    -0.004 A 
HETATM   38  C   UNL A   1       9.938   6.600  21.665  1.00  0.00    -0.000 A 
HETATM   39  C   UNL A   1       9.497   6.320  20.371  1.00  0.00    -0.000 A 
HETATM   40  C   UNL A   1       9.603   5.025  19.864  1.00  0.00    -0.000 A 
HETATM   41  C   UNL A   1      10.150   4.010  20.650  1.00  0.00    -0.004 A 
ENDBRANCH  35  36
ENDBRANCH  23  35
ENDBRANCH   2  23
TORSDOF 9
ENDMDL
MODEL 8
REMARK VINA RESULT:      -6.9      2.164      5.335
REMARK  9 active torsions:
REMARK  status: ('A' for Active; 'I' for Inactive)
REMARK       I    between atoms: N_7  and  C_16 
REMARK       I    between atoms: N_8  and  C_15 
REMARK    1  A    between atoms: N_8  and  C_20 
REMARK    2  A    between atoms: N_9  and  C_18 
REMARK       I    between atoms: N_9  and  C_23 
REMARK    3  A    between atoms: C_11  and  C_15 
REMARK    4  A    between atoms: C_16  and  C_17 
REMARK    5  A    between atoms: C_17  and  C_18 
REMARK    6  A    between atoms: C_18  and  C_19 
REMARK    7  A    between atoms: C_19  and  C_21 
REMARK    8  A    between atoms: C_20  and  C_22 
REMARK    9  A    between atoms: C_23  and  C_27 
ROOT
HETATM    1  O   UNL A   1      11.915  -2.305  23.086  1.00  0.00    -0.211 OA
HETATM    2  C   UNL A   1      11.970  -1.321  22.073  1.00  0.00     0.253 C 
ENDROOT
BRANCH   2   3
HETATM    3  C   UNL A   1      12.524  -0.068  22.703  1.00  0.00     0.267 C 
HETATM    4  O   UNL A   1      11.762   0.757  23.212  1.00  0.00    -0.269 OA
HETATM    5  N   UNL A   1      13.909   0.068  22.663  1.00  0.00    -0.301 N 
HETATM    6  C   UNL A   1      14.572   1.252  23.216  1.00  0.00     0.174 C 
HETATM    7  C   UNL A   1      14.818  -0.904  22.063  1.00  0.00     0.164 C 
HETATM    8  C   UNL A   1      15.988   0.860  23.673  1.00  0.00     0.069 C 
HETATM    9  S   UNL A   1      16.510  -0.397  22.453  1.00  0.00    -0.115 SA
HETATM   10  C   UNL A   1      16.983   2.021  23.701  1.00  0.00     0.013 C 
HETATM   11  C   UNL A   1      15.936   0.193  25.057  1.00  0.00     0.013 C 
BRANCH   6  12
HETATM   12  C   UNL A   1      14.525   2.265  22.104  1.00  0.00     0.273 C 
HETATM   13  O   UNL A   1      15.070   2.066  21.021  1.00  0.00    -0.269 OA
HETATM   14  N   UNL A   1      13.834   3.409  22.466  1.00  0.00    -0.232 NA
BRANCH  14  15
HETATM   15  C   UNL A   1      13.665   4.543  21.586  1.00  0.00     0.155 C 
BRANCH  15  16
HETATM   16  C   UNL A   1      12.217   4.854  21.343  1.00  0.00    -0.002 A 
HETATM   17  C   UNL A   1      11.780   6.172  21.209  1.00  0.00    -0.024 A 
HETATM   18  C   UNL A   1      10.430   6.439  20.986  1.00  0.00    -0.004 A 
HETATM   19  C   UNL A   1      12.739   7.313  21.303  1.00  0.00     0.031 C 
HETATM   20  C   UNL A   1       9.515   5.389  20.897  1.00  0.00    -0.000 A 
HETATM   21  C   UNL A   1       9.952   4.071  21.031  1.00  0.00    -0.000 A 
HETATM   22  C   UNL A   1      11.303   3.804  21.254  1.00  0.00    -0.003 A 
ENDBRANCH  15  16
ENDBRANCH  14  15
ENDBRANCH   6  12
ENDBRANCH   2   3
BRANCH   2  23
HETATM   23  C   UNL A   1      10.586  -1.051  21.475  1.00  0.00     0.150 C 
BRANCH  23  24
HETATM   24  N   UNL A   1       9.662  -0.776  22.557  1.00  0.00    -0.233 NA
HETATM   25  C   UNL A   1       8.329  -1.146  22.503  1.00  0.00     0.275 C 
HETATM   26  O   UNL A   1       7.797  -1.728  21.562  1.00  0.00    -0.266 OA
BRANCH  25  27
HETATM   27  C   UNL A   1       7.508  -0.768  23.682  1.00  0.00     0.056 A 
HETATM   28  C   UNL A   1       7.194   0.565  23.948  1.00  0.00     0.008 A 
HETATM   29  C   UNL A   1       6.420   0.890  25.061  1.00  0.00     0.127 A 
HETATM   30  C   UNL A   1       7.683   1.652  23.043  1.00  0.00     0.033 C 
HETATM   31  O   UNL A   1       6.104   2.186  25.338  1.00  0.00    -0.191 OA
HETATM   32  C   UNL A   1       5.960  -0.117  25.909  1.00  0.00     0.027 A 
HETATM   33  C   UNL A   1       6.274  -1.450  25.643  1.00  0.00     0.002 A 
HETATM   34  C   UNL A   1       7.047  -1.775  24.529  1.00  0.00     0.005 A 
ENDBRANCH  25  27
ENDBRANCH  23  24
BRANCH  23  35
HETATM   35  C   UNL A   1      10.574   0.108  20.458  1.00  0.00     0.054 C 
BRANCH  35  36
HETATM   36  C   UNL A   1       9.699  -0.174  19.257  1.00  0.00    -0.020 A 
HETATM   37  C   UNL A   1       8.708   0.735  18.888  1.00  0.00    -0.004 A 
HETATM   38  C   UNL A   1       7.901   0.476  17.781  1.00  0.00    -0.000 A 
HETATM   39  C   UNL A   1       8.085  -0.693  17.042  1.00  0.00    -0.000 A 
HETATM   40  C   UNL A   1       9.076  -1.602  17.411  1.00  0.00    -0.000 A 
HETATM   41  C   UNL A   1       9.883  -1.343  18.519  1.00  0.00    -0.004 A 
ENDBRANCH  35  36
ENDBRANCH  23  35
ENDBRANCH   2  23
TORSDOF 9
ENDMDL
MODEL 9
REMARK VINA RESULT:      -6.9      3.574      6.610
REMARK  9 active torsions:
REMARK  status: ('A' for Active; 'I' for Inactive)
REMARK       I    between atoms: N_7  and  C_16 
REMARK       I    between atoms: N_8  and  C_15 
REMARK    1  A    between atoms: N_8  and  C_20 
REMARK    2  A    between atoms: N_9  and  C_18 
REMARK       I    between atoms: N_9  and  C_23 
REMARK    3  A    between atoms: C_11  and  C_15 
REMARK    4  A    between atoms: C_16  and  C_17 
REMARK    5  A    between atoms: C_17  and  C_18 
REMARK    6  A    between atoms: C_18  and  C_19 
REMARK    7  A    between atoms: C_19  and  C_21 
REMARK    8  A    between atoms: C_20  and  C_22 
REMARK    9  A    between atoms: C_23  and  C_27 
ROOT
HETATM    1  O   UNL A   1       9.787   4.887  19.795  1.00  0.00    -0.211 OA
HETATM    2  C   UNL A   1       9.508   4.468  21.115  1.00  0.00     0.253 C 
ENDROOT
BRANCH   2   3
HETATM    3  C   UNL A   1      10.558   5.082  22.006  1.00  0.00     0.267 C 
HETATM    4  O   UNL A   1      10.251   5.972  22.802  1.00  0.00    -0.269 OA
HETATM    5  N   UNL A   1      11.848   4.577  21.858  1.00  0.00    -0.301 N 
HETATM    6  C   UNL A   1      12.965   5.106  22.643  1.00  0.00     0.174 C 
HETATM    7  C   UNL A   1      12.220   3.525  20.918  1.00  0.00     0.164 C 
HETATM    8  C   UNL A   1      14.017   3.997  22.821  1.00  0.00     0.069 C 
HETATM    9  S   UNL A   1      13.937   3.065  21.252  1.00  0.00    -0.115 SA
HETATM   10  C   UNL A   1      15.437   4.511  23.064  1.00  0.00     0.013 C 
HETATM   11  C   UNL A   1      13.609   3.053  23.963  1.00  0.00     0.013 C 
BRANCH   6  12
HETATM   12  C   UNL A   1      13.437   6.308  21.869  1.00  0.00     0.273 C 
HETATM   13  O   UNL A   1      13.807   7.336  22.429  1.00  0.00    -0.269 OA
HETATM   14  N   UNL A   1      13.377   6.106  20.501  1.00  0.00    -0.232 NA
BRANCH  14  15
HETATM   15  C   UNL A   1      13.752   7.113  19.535  1.00  0.00     0.155 C 
BRANCH  15  16
HETATM   16  C   UNL A   1      14.438   6.518  18.340  1.00  0.00    -0.002 A 
HETATM   17  C   UNL A   1      14.365   7.134  17.091  1.00  0.00    -0.024 A 
HETATM   18  C   UNL A   1      15.008   6.563  15.993  1.00  0.00    -0.004 A 
HETATM   19  C   UNL A   1      13.603   8.405  16.904  1.00  0.00     0.031 C 
HETATM   20  C   UNL A   1      15.725   5.375  16.144  1.00  0.00    -0.000 A 
HETATM   21  C   UNL A   1      15.798   4.759  17.393  1.00  0.00    -0.000 A 
HETATM   22  C   UNL A   1      15.154   5.330  18.491  1.00  0.00    -0.003 A 
ENDBRANCH  15  16
ENDBRANCH  14  15
ENDBRANCH   6  12
ENDBRANCH   2   3
BRANCH   2  23
HETATM   23  C   UNL A   1       9.532   2.941  21.237  1.00  0.00     0.150 C 
BRANCH  23  24
HETATM   24  N   UNL A   1       8.616   2.548  22.291  1.00  0.00    -0.233 NA
HETATM   25  C   UNL A   1       9.052   1.974  23.472  1.00  0.00     0.275 C 
HETATM   26  O   UNL A   1      10.224   1.740  23.752  1.00  0.00    -0.266 OA
BRANCH  25  27
HETATM   27  C   UNL A   1       7.986   1.605  24.439  1.00  0.00     0.056 A 
HETATM   28  C   UNL A   1       7.455   0.316  24.472  1.00  0.00     0.008 A 
HETATM   29  C   UNL A   1       6.456  -0.003  25.391  1.00  0.00     0.127 A 
HETATM   30  C   UNL A   1       7.952  -0.731  23.526  1.00  0.00     0.033 C 
HETATM   31  O   UNL A   1       5.924  -1.257  25.438  1.00  0.00    -0.191 OA
HETATM   32  C   UNL A   1       5.988   0.967  26.277  1.00  0.00     0.027 A 
HETATM   33  C   UNL A   1       6.519   2.256  26.245  1.00  0.00     0.002 A 
HETATM   34  C   UNL A   1       7.519   2.574  25.326  1.00  0.00     0.005 A 
ENDBRANCH  25  27
ENDBRANCH  23  24
BRANCH  23  35
HETATM   35  C   UNL A   1       9.175   2.215  19.925  1.00  0.00     0.054 C 
BRANCH  35  36
HETATM   36  C   UNL A   1       9.216   0.709  20.057  1.00  0.00    -0.020 A 
HETATM   37  C   UNL A   1       8.124  -0.056  19.650  1.00  0.00    -0.004 A 
HETATM   38  C   UNL A   1       8.161  -1.445  19.772  1.00  0.00    -0.000 A 
HETATM   39  C   UNL A   1       9.292  -2.069  20.299  1.00  0.00    -0.000 A 
HETATM   40  C   UNL A   1      10.385  -1.303  20.705  1.00  0.00    -0.000 A 
HETATM   41  C   UNL A   1      10.347   0.086  20.585  1.00  0.00    -0.004 A 
ENDBRANCH  35  36
ENDBRANCH  23  35
ENDBRANCH   2  23
TORSDOF 9
ENDMDL
MODEL 10
REMARK VINA RESULT:      -6.8      2.603      6.897
REMARK  9 active torsions:
REMARK  status: ('A' for Active; 'I' for Inactive)
REMARK       I    between atoms: N_7  and  C_16 
REMARK       I    between atoms: N_8  and  C_15 
REMARK    1  A    between atoms: N_8  and  C_20 
REMARK    2  A    between atoms: N_9  and  C_18 
REMARK       I    between atoms: N_9  and  C_23 
REMARK    3  A    between atoms: C_11  and  C_15 
REMARK    4  A    between atoms: C_16  and  C_17 
REMARK    5  A    between atoms: C_17  and  C_18 
REMARK    6  A    between atoms: C_18  and  C_19 
REMARK    7  A    between atoms: C_19  and  C_21 
REMARK    8  A    between atoms: C_20  and  C_22 
REMARK    9  A    between atoms: C_23  and  C_27 
ROOT
HETATM    1  O   UNL A   1       9.001   1.884  18.474  1.00  0.00    -0.211 OA
HETATM    2  C   UNL A   1       9.132   1.666  19.864  1.00  0.00     0.253 C 
ENDROOT
BRANCH   2   3
HETATM    3  C   UNL A   1      10.510   2.138  20.258  1.00  0.00     0.267 C 
HETATM    4  O   UNL A   1      11.495   1.434  20.027  1.00  0.00    -0.269 OA
HETATM    5  N   UNL A   1      10.568   3.385  20.875  1.00  0.00    -0.301 N 
HETATM    6  C   UNL A   1      11.841   3.948  21.331  1.00  0.00     0.174 C 
HETATM    7  C   UNL A   1       9.407   4.225  21.152  1.00  0.00     0.164 C 
HETATM    8  C   UNL A   1      11.745   5.484  21.300  1.00  0.00     0.069 C 
HETATM    9  S   UNL A   1      10.008   5.822  21.753  1.00  0.00    -0.115 SA
HETATM   10  C   UNL A   1      12.695   6.192  22.266  1.00  0.00     0.013 C 
HETATM   11  C   UNL A   1      11.980   6.004  19.873  1.00  0.00     0.013 C 
BRANCH   6  12
HETATM   12  C   UNL A   1      12.049   3.355  22.699  1.00  0.00     0.273 C 
HETATM   13  O   UNL A   1      11.134   3.270  23.514  1.00  0.00    -0.269 OA
HETATM   14  N   UNL A   1      13.359   2.961  22.905  1.00  0.00    -0.232 NA
BRANCH  14  15
HETATM   15  C   UNL A   1      13.825   2.383  24.145  1.00  0.00     0.155 C 
BRANCH  15  16
HETATM   16  C   UNL A   1      15.030   1.511  23.941  1.00  0.00    -0.002 A 
HETATM   17  C   UNL A   1      14.968   0.137  24.173  1.00  0.00    -0.024 A 
HETATM   18  C   UNL A   1      16.099  -0.654  23.980  1.00  0.00    -0.004 A 
HETATM   19  C   UNL A   1      13.701  -0.509  24.630  1.00  0.00     0.031 C 
HETATM   20  C   UNL A   1      17.294  -0.073  23.555  1.00  0.00    -0.000 A 
HETATM   21  C   UNL A   1      17.357   1.301  23.324  1.00  0.00    -0.000 A 
HETATM   22  C   UNL A   1      16.224   2.093  23.517  1.00  0.00    -0.003 A 
ENDBRANCH  15  16
ENDBRANCH  14  15
ENDBRANCH   6  12
ENDBRANCH   2   3
BRANCH   2  23
HETATM   23  C   UNL A   1       8.954   0.187  20.221  1.00  0.00     0.150 C 
BRANCH  23  24
HETATM   24  N   UNL A   1       8.139   0.095  21.416  1.00  0.00    -0.233 NA
HETATM   25  C   UNL A   1       8.690  -0.041  22.678  1.00  0.00     0.275 C 
HETATM   26  O   UNL A   1       9.893  -0.099  22.920  1.00  0.00    -0.266 OA
BRANCH  25  27
HETATM   27  C   UNL A   1       7.719  -0.147  23.797  1.00  0.00     0.056 A 
HETATM   28  C   UNL A   1       7.225   0.990  24.436  1.00  0.00     0.008 A 
HETATM   29  C   UNL A   1       6.313   0.860  25.483  1.00  0.00     0.127 A 
HETATM   30  C   UNL A   1       7.666   2.352  24.004  1.00  0.00     0.033 C 
HETATM   31  O   UNL A   1       5.820   1.959  26.120  1.00  0.00    -0.191 OA
HETATM   32  C   UNL A   1       5.896  -0.407  25.893  1.00  0.00     0.027 A 
HETATM   33  C   UNL A   1       6.390  -1.544  25.254  1.00  0.00     0.002 A 
HETATM   34  C   UNL A   1       7.301  -1.413  24.206  1.00  0.00     0.005 A 
ENDBRANCH  25  27
ENDBRANCH  23  24
BRANCH  23  35
HETATM   35  C   UNL A   1       8.328  -0.647  19.085  1.00  0.00     0.054 C 
BRANCH  35  36
HETATM   36  C   UNL A   1       9.260  -1.713  18.556  1.00  0.00    -0.020 A 
HETATM   37  C   UNL A   1       9.637  -1.707  17.213  1.00  0.00    -0.004 A 
HETATM   38  C   UNL A   1      10.496  -2.690  16.725  1.00  0.00    -0.000 A 
HETATM   39  C   UNL A   1      10.979  -3.681  17.580  1.00  0.00    -0.000 A 
HETATM   40  C   UNL A   1      10.602  -3.688  18.923  1.00  0.00    -0.000 A 
HETATM   41  C   UNL A   1       9.742  -2.704  19.411  1.00  0.00    -0.004 A 
ENDBRANCH  35  36
ENDBRANCH  23  35
ENDBRANCH   2  23
TORSDOF 9
ENDMDL
MODEL 11
REMARK VINA RESULT:      -6.7      2.922      5.431
REMARK  9 active torsions:
REMARK  status: ('A' for Active; 'I' for Inactive)
REMARK       I    between atoms: N_7  and  C_16 
REMARK       I    between atoms: N_8  and  C_15 
REMARK    1  A    between atoms: N_8  and  C_20 
REMARK    2  A    between atoms: N_9  and  C_18 
REMARK       I    between atoms: N_9  and  C_23 
REMARK    3  A    between atoms: C_11  and  C_15 
REMARK    4  A    between atoms: C_16  and  C_17 
REMARK    5  A    between atoms: C_17  and  C_18 
REMARK    6  A    between atoms: C_18  and  C_19 
REMARK    7  A    between atoms: C_19  and  C_21 
REMARK    8  A    between atoms: C_20  and  C_22 
REMARK    9  A    between atoms: C_23  and  C_27 
ROOT
HETATM    1  O   UNL A   1      11.543  -0.332  22.995  1.00  0.00    -0.211 OA
HETATM    2  C   UNL A   1      12.088   0.841  22.427  1.00  0.00     0.253 C 
ENDROOT
BRANCH   2   3
HETATM    3  C   UNL A   1      13.344   1.164  23.197  1.00  0.00     0.267 C 
HETATM    4  O   UNL A   1      13.291   1.892  24.190  1.00  0.00    -0.269 OA
HETATM    5  N   UNL A   1      14.516   0.589  22.710  1.00  0.00    -0.301 N 
HETATM    6  C   UNL A   1      15.809   0.844  23.351  1.00  0.00     0.174 C 
HETATM    7  C   UNL A   1      14.587  -0.274  21.536  1.00  0.00     0.164 C 
HETATM    8  C   UNL A   1      16.729  -0.366  23.110  1.00  0.00     0.069 C 
HETATM    9  S   UNL A   1      16.265  -0.942  21.440  1.00  0.00    -0.115 SA
HETATM   10  C   UNL A   1      18.222  -0.040  23.166  1.00  0.00     0.013 C 
HETATM   11  C   UNL A   1      16.409  -1.487  24.112  1.00  0.00     0.013 C 
BRANCH   6  12
HETATM   12  C   UNL A   1      16.287   2.133  22.738  1.00  0.00     0.273 C 
HETATM   13  O   UNL A   1      16.525   2.231  21.537  1.00  0.00    -0.269 OA
HETATM   14  N   UNL A   1      16.434   3.138  23.679  1.00  0.00    -0.232 NA
BRANCH  14  15
HETATM   15  C   UNL A   1      16.902   4.465  23.353  1.00  0.00     0.155 C 
BRANCH  15  16
HETATM   16  C   UNL A   1      15.769   5.400  23.044  1.00  0.00    -0.002 A 
HETATM   17  C   UNL A   1      15.633   5.966  21.776  1.00  0.00    -0.024 A 
HETATM   18  C   UNL A   1      14.575   6.835  21.511  1.00  0.00    -0.004 A 
HETATM   19  C   UNL A   1      16.608   5.658  20.687  1.00  0.00     0.031 C 
HETATM   20  C   UNL A   1      13.652   7.138  22.513  1.00  0.00    -0.000 A 
HETATM   21  C   UNL A   1      13.789   6.573  23.781  1.00  0.00    -0.000 A 
HETATM   22  C   UNL A   1      14.848   5.704  24.046  1.00  0.00    -0.003 A 
ENDBRANCH  15  16
ENDBRANCH  14  15
ENDBRANCH   6  12
ENDBRANCH   2   3
BRANCH   2  23
HETATM   23  C   UNL A   1      11.103   2.012  22.500  1.00  0.00     0.150 C 
BRANCH  23  24
HETATM   24  N   UNL A   1      10.087   1.700  23.486  1.00  0.00    -0.233 NA
HETATM   25  C   UNL A   1       8.740   1.911  23.251  1.00  0.00     0.275 C 
HETATM   26  O   UNL A   1       8.269   2.373  22.216  1.00  0.00    -0.266 OA
BRANCH  25  27
HETATM   27  C   UNL A   1       7.829   1.564  24.372  1.00  0.00     0.056 A 
HETATM   28  C   UNL A   1       7.311   0.276  24.510  1.00  0.00     0.008 A 
HETATM   29  C   UNL A   1       6.458  -0.022  25.572  1.00  0.00     0.127 A 
HETATM   30  C   UNL A   1       7.666  -0.791  23.524  1.00  0.00     0.033 C 
HETATM   31  O   UNL A   1       5.942  -1.273  25.724  1.00  0.00    -0.191 OA
HETATM   32  C   UNL A   1       6.122   0.968  26.496  1.00  0.00     0.027 A 
HETATM   33  C   UNL A   1       6.641   2.256  26.359  1.00  0.00     0.002 A 
HETATM   34  C   UNL A   1       7.494   2.553  25.296  1.00  0.00     0.005 A 
ENDBRANCH  25  27
ENDBRANCH  23  24
BRANCH  23  35
HETATM   35  C   UNL A   1      11.775   3.358  22.837  1.00  0.00     0.054 C 
BRANCH  35  36
HETATM   36  C   UNL A   1      11.223   4.510  22.026  1.00  0.00    -0.020 A 
HETATM   37  C   UNL A   1      11.635   4.695  20.707  1.00  0.00    -0.004 A 
HETATM   38  C   UNL A   1      11.126   5.757  19.960  1.00  0.00    -0.000 A 
HETATM   39  C   UNL A   1      10.204   6.633  20.532  1.00  0.00    -0.000 A 
HETATM   40  C   UNL A   1       9.791   6.448  21.851  1.00  0.00    -0.000 A 
HETATM   41  C   UNL A   1      10.301   5.386  22.599  1.00  0.00    -0.004 A 
ENDBRANCH  35  36
ENDBRANCH  23  35
ENDBRANCH   2  23
TORSDOF 9
ENDMDL
MODEL 12
REMARK VINA RESULT:      -6.7      3.096      5.111
REMARK  9 active torsions:
REMARK  status: ('A' for Active; 'I' for Inactive)
REMARK       I    between atoms: N_7  and  C_16 
REMARK       I    between atoms: N_8  and  C_15 
REMARK    1  A    between atoms: N_8  and  C_20 
REMARK    2  A    between atoms: N_9  and  C_18 
REMARK       I    between atoms: N_9  and  C_23 
REMARK    3  A    between atoms: C_11  and  C_15 
REMARK    4  A    between atoms: C_16  and  C_17 
REMARK    5  A    between atoms: C_17  and  C_18 
REMARK    6  A    between atoms: C_18  and  C_19 
REMARK    7  A    between atoms: C_19  and  C_21 
REMARK    8  A    between atoms: C_20  and  C_22 
REMARK    9  A    between atoms: C_23  and  C_27 
ROOT
HETATM    1  O   UNL A   1      12.789   0.063  21.526  1.00  0.00    -0.211 OA
HETATM    2  C   UNL A   1      11.908  -0.923  22.023  1.00  0.00     0.253 C 
ENDROOT
BRANCH   2   3
HETATM    3  C   UNL A   1      12.481  -2.264  21.635  1.00  0.00     0.267 C 
HETATM    4  O   UNL A   1      12.752  -2.502  20.456  1.00  0.00    -0.269 OA
HETATM    5  N   UNL A   1      12.670  -3.165  22.679  1.00  0.00    -0.301 N 
HETATM    6  C   UNL A   1      13.195  -4.512  22.433  1.00  0.00     0.174 C 
HETATM    7  C   UNL A   1      12.352  -2.891  24.076  1.00  0.00     0.164 C 
HETATM    8  C   UNL A   1      13.935  -4.993  23.693  1.00  0.00     0.069 C 
HETATM    9  S   UNL A   1      12.975  -4.269  25.068  1.00  0.00    -0.115 SA
HETATM   10  C   UNL A   1      14.007  -6.514  23.836  1.00  0.00     0.013 C 
HETATM   11  C   UNL A   1      15.355  -4.405  23.735  1.00  0.00     0.013 C 
BRANCH   6  12
HETATM   12  C   UNL A   1      11.985  -5.326  22.060  1.00  0.00     0.273 C 
HETATM   13  O   UNL A   1      12.026  -6.181  21.179  1.00  0.00    -0.269 OA
HETATM   14  N   UNL A   1      10.869  -4.976  22.800  1.00  0.00    -0.232 NA
BRANCH  14  15
HETATM   15  C   UNL A   1       9.574  -5.593  22.619  1.00  0.00     0.155 C 
BRANCH  15  16
HETATM   16  C   UNL A   1       8.960  -6.005  23.925  1.00  0.00    -0.002 A 
HETATM   17  C   UNL A   1       8.964  -7.340  24.329  1.00  0.00    -0.024 A 
HETATM   18  C   UNL A   1       8.386  -7.701  25.545  1.00  0.00    -0.004 A 
HETATM   19  C   UNL A   1       9.580  -8.400  23.476  1.00  0.00     0.031 C 
HETATM   20  C   UNL A   1       7.803  -6.728  26.359  1.00  0.00    -0.000 A 
HETATM   21  C   UNL A   1       7.799  -5.393  25.954  1.00  0.00    -0.000 A 
HETATM   22  C   UNL A   1       8.378  -5.032  24.737  1.00  0.00    -0.003 A 
ENDBRANCH  15  16
ENDBRANCH  14  15
ENDBRANCH   6  12
ENDBRANCH   2   3
BRANCH   2  23
HETATM   23  C   UNL A   1      10.498  -0.760  21.449  1.00  0.00     0.150 C 
BRANCH  23  24
HETATM   24  N   UNL A   1       9.578  -0.520  22.544  1.00  0.00    -0.233 NA
HETATM   25  C   UNL A   1       8.279  -0.996  22.535  1.00  0.00     0.275 C 
HETATM   26  O   UNL A   1       7.774  -1.652  21.629  1.00  0.00    -0.266 OA
BRANCH  25  27
HETATM   27  C   UNL A   1       7.456  -0.643  23.721  1.00  0.00     0.056 A 
HETATM   28  C   UNL A   1       7.174   0.687  24.035  1.00  0.00     0.008 A 
HETATM   29  C   UNL A   1       6.398   0.989  25.154  1.00  0.00     0.127 A 
HETATM   30  C   UNL A   1       7.698   1.794  23.177  1.00  0.00     0.033 C 
HETATM   31  O   UNL A   1       6.112   2.281  25.477  1.00  0.00    -0.191 OA
HETATM   32  C   UNL A   1       5.905  -0.038  25.959  1.00  0.00     0.027 A 
HETATM   33  C   UNL A   1       6.188  -1.368  25.645  1.00  0.00     0.002 A 
HETATM   34  C   UNL A   1       6.963  -1.669  24.526  1.00  0.00     0.005 A 
ENDBRANCH  25  27
ENDBRANCH  23  24
BRANCH  23  35
HETATM   35  C   UNL A   1      10.388   0.370  20.406  1.00  0.00     0.054 C 
BRANCH  35  36
HETATM   36  C   UNL A   1       9.573  -0.025  19.195  1.00  0.00    -0.020 A 
HETATM   37  C   UNL A   1       9.911  -1.168  18.470  1.00  0.00    -0.004 A 
HETATM   38  C   UNL A   1       9.159  -1.532  17.353  1.00  0.00    -0.000 A 
HETATM   39  C   UNL A   1       8.069  -0.755  16.961  1.00  0.00    -0.000 A 
HETATM   40  C   UNL A   1       7.732   0.388  17.686  1.00  0.00    -0.000 A 
HETATM   41  C   UNL A   1       8.484   0.753  18.803  1.00  0.00    -0.004 A 
ENDBRANCH  35  36
ENDBRANCH  23  35
ENDBRANCH   2  23
TORSDOF 9
ENDMDL
MODEL 13
REMARK VINA RESULT:      -6.6      2.971      6.589
REMARK  9 active torsions:
REMARK  status: ('A' for Active; 'I' for Inactive)
REMARK       I    between atoms: N_7  and  C_16 
REMARK       I    between atoms: N_8  and  C_15 
REMARK    1  A    between atoms: N_8  and  C_20 
REMARK    2  A    between atoms: N_9  and  C_18 
REMARK       I    between atoms: N_9  and  C_23 
REMARK    3  A    between atoms: C_11  and  C_15 
REMARK    4  A    between atoms: C_16  and  C_17 
REMARK    5  A    between atoms: C_17  and  C_18 
REMARK    6  A    between atoms: C_18  and  C_19 
REMARK    7  A    between atoms: C_19  and  C_21 
REMARK    8  A    between atoms: C_20  and  C_22 
REMARK    9  A    between atoms: C_23  and  C_27 
ROOT
HETATM    1  O   UNL A   1       9.592  -1.568  19.492  1.00  0.00    -0.211 OA
HETATM    2  C   UNL A   1      10.420  -1.105  20.540  1.00  0.00     0.253 C 
ENDROOT
BRANCH   2   3
HETATM    3  C   UNL A   1      10.930  -2.322  21.271  1.00  0.00     0.267 C 
HETATM    4  O   UNL A   1      10.163  -3.248  21.541  1.00  0.00    -0.269 OA
HETATM    5  N   UNL A   1      12.284  -2.308  21.596  1.00  0.00    -0.301 N 
HETATM    6  C   UNL A   1      12.900  -3.417  22.331  1.00  0.00     0.174 C 
HETATM    7  C   UNL A   1      13.199  -1.216  21.281  1.00  0.00     0.164 C 
HETATM    8  C   UNL A   1      14.389  -3.499  21.950  1.00  0.00     0.069 C 
HETATM    9  S   UNL A   1      14.874  -1.754  21.704  1.00  0.00    -0.115 SA
HETATM   10  C   UNL A   1      15.273  -4.153  23.012  1.00  0.00     0.013 C 
HETATM   11  C   UNL A   1      14.557  -4.238  20.613  1.00  0.00     0.013 C 
BRANCH   6  12
HETATM   12  C   UNL A   1      12.634  -3.105  23.779  1.00  0.00     0.273 C 
HETATM   13  O   UNL A   1      12.988  -2.046  24.290  1.00  0.00    -0.269 OA
HETATM   14  N   UNL A   1      11.986  -4.142  24.428  1.00  0.00    -0.232 NA
BRANCH  14  15
HETATM   15  C   UNL A   1      11.637  -4.103  25.830  1.00  0.00     0.155 C 
BRANCH  15  16
HETATM   16  C   UNL A   1      10.300  -4.732  26.094  1.00  0.00    -0.002 A 
HETATM   17  C   UNL A   1      10.096  -5.538  27.213  1.00  0.00    -0.024 A 
HETATM   18  C   UNL A   1       8.847  -6.115  27.439  1.00  0.00    -0.004 A 
HETATM   19  C   UNL A   1      11.201  -5.799  28.185  1.00  0.00     0.031 C 
HETATM   20  C   UNL A   1       7.801  -5.887  26.544  1.00  0.00    -0.000 A 
HETATM   21  C   UNL A   1       8.005  -5.081  25.424  1.00  0.00    -0.000 A 
HETATM   22  C   UNL A   1       9.255  -4.504  25.199  1.00  0.00    -0.003 A 
ENDBRANCH  15  16
ENDBRANCH  14  15
ENDBRANCH   6  12
ENDBRANCH   2   3
BRANCH   2  23
HETATM   23  C   UNL A   1       9.655  -0.190  21.499  1.00  0.00     0.150 C 
BRANCH  23  24
HETATM   24  N   UNL A   1       9.889   1.187  21.109  1.00  0.00    -0.233 NA
HETATM   25  C   UNL A   1      10.387   2.130  21.990  1.00  0.00     0.275 C 
HETATM   26  O   UNL A   1      10.676   1.916  23.163  1.00  0.00    -0.266 OA
BRANCH  25  27
HETATM   27  C   UNL A   1      10.545   3.503  21.443  1.00  0.00     0.056 A 
HETATM   28  C   UNL A   1      11.748   3.919  20.872  1.00  0.00     0.008 A 
HETATM   29  C   UNL A   1      11.868   5.212  20.366  1.00  0.00     0.127 A 
HETATM   30  C   UNL A   1      12.914   2.984  20.799  1.00  0.00     0.033 C 
HETATM   31  O   UNL A   1      13.035   5.638  19.806  1.00  0.00    -0.191 OA
HETATM   32  C   UNL A   1      10.786   6.090  20.430  1.00  0.00     0.027 A 
HETATM   33  C   UNL A   1       9.583   5.674  21.000  1.00  0.00     0.002 A 
HETATM   34  C   UNL A   1       9.463   4.380  21.506  1.00  0.00     0.005 A 
ENDBRANCH  25  27
ENDBRANCH  23  24
BRANCH  23  35
HETATM   35  C   UNL A   1       8.141  -0.479  21.546  1.00  0.00     0.054 C 
BRANCH  35  36
HETATM   36  C   UNL A   1       7.579  -0.446  22.950  1.00  0.00    -0.020 A 
HETATM   37  C   UNL A   1       7.231   0.771  23.534  1.00  0.00    -0.004 A 
HETATM   38  C   UNL A   1       6.713   0.801  24.828  1.00  0.00    -0.000 A 
HETATM   39  C   UNL A   1       6.543  -0.387  25.539  1.00  0.00    -0.000 A 
HETATM   40  C   UNL A   1       6.891  -1.605  24.955  1.00  0.00    -0.000 A 
HETATM   41  C   UNL A   1       7.410  -1.635  23.660  1.00  0.00    -0.004 A 
ENDBRANCH  35  36
ENDBRANCH  23  35
ENDBRANCH   2  23
TORSDOF 9
ENDMDL
MODEL 14
REMARK VINA RESULT:      -6.6      3.973      6.896
REMARK  9 active torsions:
REMARK  status: ('A' for Active; 'I' for Inactive)
REMARK       I    between atoms: N_7  and  C_16 
REMARK       I    between atoms: N_8  and  C_15 
REMARK    1  A    between atoms: N_8  and  C_20 
REMARK    2  A    between atoms: N_9  and  C_18 
REMARK       I    between atoms: N_9  and  C_23 
REMARK    3  A    between atoms: C_11  and  C_15 
REMARK    4  A    between atoms: C_16  and  C_17 
REMARK    5  A    between atoms: C_17  and  C_18 
REMARK    6  A    between atoms: C_18  and  C_19 
REMARK    7  A    between atoms: C_19  and  C_21 
REMARK    8  A    between atoms: C_20  and  C_22 
REMARK    9  A    between atoms: C_23  and  C_27 
ROOT
HETATM    1  O   UNL A   1       7.436  -4.125  25.695  1.00  0.00    -0.211 OA
HETATM    2  C   UNL A   1       7.977  -3.987  24.397  1.00  0.00     0.253 C 
ENDROOT
BRANCH   2   3
HETATM    3  C   UNL A   1       9.418  -4.429  24.469  1.00  0.00     0.267 C 
HETATM    4  O   UNL A   1      10.299  -3.618  24.761  1.00  0.00    -0.269 OA
HETATM    5  N   UNL A   1       9.653  -5.773  24.193  1.00  0.00    -0.301 N 
HETATM    6  C   UNL A   1      11.010  -6.324  24.203  1.00  0.00     0.174 C 
HETATM    7  C   UNL A   1       8.615  -6.740  23.847  1.00  0.00     0.164 C 
HETATM    8  C   UNL A   1      10.937  -7.818  24.567  1.00  0.00     0.069 C 
HETATM    9  S   UNL A   1       9.378  -8.379  23.799  1.00  0.00    -0.115 SA
HETATM   10  C   UNL A   1      12.114  -8.648  24.052  1.00  0.00     0.013 C 
HETATM   11  C   UNL A   1      10.814  -7.990  26.089  1.00  0.00     0.013 C 
BRANCH   6  12
HETATM   12  C   UNL A   1      11.546  -6.034  22.826  1.00  0.00     0.273 C 
HETATM   13  O   UNL A   1      12.646  -5.516  22.655  1.00  0.00    -0.269 OA
HETATM   14  N   UNL A   1      10.656  -6.397  21.830  1.00  0.00    -0.232 NA
BRANCH  14  15
HETATM   15  C   UNL A   1      10.921  -6.202  20.423  1.00  0.00     0.155 C 
BRANCH  15  16
HETATM   16  C   UNL A   1      11.053  -7.505  19.690  1.00  0.00    -0.002 A 
HETATM   17  C   UNL A   1      11.852  -7.609  18.552  1.00  0.00    -0.024 A 
HETATM   18  C   UNL A   1      11.959  -8.828  17.884  1.00  0.00    -0.004 A 
HETATM   19  C   UNL A   1      12.602  -6.428  18.028  1.00  0.00     0.031 C 
HETATM   20  C   UNL A   1      11.267  -9.945  18.355  1.00  0.00    -0.000 A 
HETATM   21  C   UNL A   1      10.467  -9.841  19.493  1.00  0.00    -0.000 A 
HETATM   22  C   UNL A   1      10.361  -8.621  20.160  1.00  0.00    -0.003 A 
ENDBRANCH  15  16
ENDBRANCH  14  15
ENDBRANCH   6  12
ENDBRANCH   2   3
BRANCH   2  23
HETATM   23  C   UNL A   1       7.887  -2.542  23.900  1.00  0.00     0.150 C 
BRANCH  23  24
HETATM   24  N   UNL A   1       8.098  -2.533  22.465  1.00  0.00    -0.233 NA
HETATM   25  C   UNL A   1       9.158  -1.864  21.878  1.00  0.00     0.275 C 
HETATM   26  O   UNL A   1      10.011  -1.224  22.486  1.00  0.00    -0.266 OA
BRANCH  25  27
HETATM   27  C   UNL A   1       9.219  -1.930  20.395  1.00  0.00     0.056 A 
HETATM   28  C   UNL A   1       8.518  -1.022  19.602  1.00  0.00     0.008 A 
HETATM   29  C   UNL A   1       8.594  -1.107  18.212  1.00  0.00     0.127 A 
HETATM   30  C   UNL A   1       7.684   0.048  20.233  1.00  0.00     0.033 C 
HETATM   31  O   UNL A   1       7.916  -0.229  17.420  1.00  0.00    -0.191 OA
HETATM   32  C   UNL A   1       9.369  -2.101  17.615  1.00  0.00     0.027 A 
HETATM   33  C   UNL A   1      10.070  -3.010  18.409  1.00  0.00     0.002 A 
HETATM   34  C   UNL A   1       9.994  -2.924  19.799  1.00  0.00     0.005 A 
ENDBRANCH  25  27
ENDBRANCH  23  24
BRANCH  23  35
HETATM   35  C   UNL A   1       6.550  -1.856  24.245  1.00  0.00     0.054 C 
BRANCH  35  36
HETATM   36  C   UNL A   1       6.732  -0.479  24.841  1.00  0.00    -0.020 A 
HETATM   37  C   UNL A   1       7.563   0.448  24.213  1.00  0.00    -0.004 A 
HETATM   38  C   UNL A   1       7.731   1.719  24.763  1.00  0.00    -0.000 A 
HETATM   39  C   UNL A   1       7.066   2.063  25.940  1.00  0.00    -0.000 A 
HETATM   40  C   UNL A   1       6.234   1.137  26.567  1.00  0.00    -0.000 A 
HETATM   41  C   UNL A   1       6.067  -0.135  26.018  1.00  0.00    -0.004 A 
ENDBRANCH  35  36
ENDBRANCH  23  35
ENDBRANCH   2  23
TORSDOF 9
ENDMDL
MODEL 15
REMARK VINA RESULT:      -6.6      4.888      8.122
REMARK  9 active torsions:
REMARK  status: ('A' for Active; 'I' for Inactive)
REMARK       I    between atoms: N_7  and  C_16 
REMARK       I    between atoms: N_8  and  C_15 
REMARK    1  A    between atoms: N_8  and  C_20 
REMARK    2  A    between atoms: N_9  and  C_18 
REMARK       I    between atoms: N_9  and  C_23 
REMARK    3  A    between atoms: C_11  and  C_15 
REMARK    4  A    between atoms: C_16  and  C_17 
REMARK    5  A    between atoms: C_17  and  C_18 
REMARK    6  A    between atoms: C_18  and  C_19 
REMARK    7  A    between atoms: C_19  and  C_21 
REMARK    8  A    between atoms: C_20  and  C_22 
REMARK    9  A    between atoms: C_23  and  C_27 
ROOT
HETATM    1  O   UNL A   1      12.681  -4.615  24.924  1.00  0.00    -0.211 OA
HETATM    2  C   UNL A   1      11.821  -4.957  23.855  1.00  0.00     0.253 C 
ENDROOT
BRANCH   2   3
HETATM    3  C   UNL A   1      11.682  -3.730  22.989  1.00  0.00     0.267 C 
HETATM    4  O   UNL A   1      11.857  -2.609  23.473  1.00  0.00    -0.269 OA
HETATM    5  N   UNL A   1      11.357  -3.965  21.656  1.00  0.00    -0.301 N 
HETATM    6  C   UNL A   1      11.166  -2.857  20.715  1.00  0.00     0.174 C 
HETATM    7  C   UNL A   1      11.148  -5.287  21.076  1.00  0.00     0.164 C 
HETATM    8  C   UNL A   1      11.516  -3.344  19.298  1.00  0.00     0.069 C 
HETATM    9  S   UNL A   1      10.969  -5.088  19.287  1.00  0.00    -0.115 SA
HETATM   10  C   UNL A   1      10.827  -2.563  18.178  1.00  0.00     0.013 C 
HETATM   11  C   UNL A   1      13.037  -3.316  19.085  1.00  0.00     0.013 C 
BRANCH   6  12
HETATM   12  C   UNL A   1       9.731  -2.443  20.905  1.00  0.00     0.273 C 
HETATM   13  O   UNL A   1       8.844  -3.262  21.131  1.00  0.00    -0.269 OA
HETATM   14  N   UNL A   1       9.559  -1.076  20.772  1.00  0.00    -0.232 NA
BRANCH  14  15
HETATM   15  C   UNL A   1       8.273  -0.426  20.886  1.00  0.00     0.155 C 
BRANCH  15  16
HETATM   16  C   UNL A   1       8.221   0.517  22.053  1.00  0.00    -0.002 A 
HETATM   17  C   UNL A   1       8.794   1.786  21.974  1.00  0.00    -0.024 A 
HETATM   18  C   UNL A   1       8.737   2.646  23.071  1.00  0.00    -0.004 A 
HETATM   19  C   UNL A   1       9.474   2.248  20.727  1.00  0.00     0.031 C 
HETATM   20  C   UNL A   1       8.108   2.236  24.247  1.00  0.00    -0.000 A 
HETATM   21  C   UNL A   1       7.536   0.966  24.326  1.00  0.00    -0.000 A 
HETATM   22  C   UNL A   1       7.593   0.107  23.228  1.00  0.00    -0.003 A 
ENDBRANCH  15  16
ENDBRANCH  14  15
ENDBRANCH   6  12
ENDBRANCH   2   3
BRANCH   2  23
HETATM   23  C   UNL A   1      10.449  -5.412  24.360  1.00  0.00     0.150 C 
BRANCH  23  24
HETATM   24  N   UNL A   1      10.517  -6.825  24.674  1.00  0.00    -0.233 NA
HETATM   25  C   UNL A   1       9.531  -7.716  24.289  1.00  0.00     0.275 C 
HETATM   26  O   UNL A   1       8.520  -7.420  23.660  1.00  0.00    -0.266 OA
BRANCH  25  27
HETATM   27  C   UNL A   1       9.737  -9.126  24.711  1.00  0.00     0.056 A 
HETATM   28  C   UNL A   1       9.319  -9.574  25.964  1.00  0.00     0.008 A 
HETATM   29  C   UNL A   1       9.524 -10.903  26.333  1.00  0.00     0.127 A 
HETATM   30  C   UNL A   1       8.648  -8.637  26.918  1.00  0.00     0.033 C 
HETATM   31  O   UNL A   1       9.123 -11.359  27.553  1.00  0.00    -0.191 OA
HETATM   32  C   UNL A   1      10.148 -11.784  25.450  1.00  0.00     0.027 A 
HETATM   33  C   UNL A   1      10.566 -11.336  24.197  1.00  0.00     0.002 A 
HETATM   34  C   UNL A   1      10.360 -10.007  23.828  1.00  0.00     0.005 A 
ENDBRANCH  25  27
ENDBRANCH  23  24
BRANCH  23  35
HETATM   35  C   UNL A   1       9.953  -4.618  25.586  1.00  0.00     0.054 C 
BRANCH  35  36
HETATM   36  C   UNL A   1       8.469  -4.331  25.539  1.00  0.00    -0.020 A 
HETATM   37  C   UNL A   1       7.576  -5.163  26.213  1.00  0.00    -0.004 A 
HETATM   38  C   UNL A   1       6.208  -4.899  26.170  1.00  0.00    -0.000 A 
HETATM   39  C   UNL A   1       5.732  -3.801  25.452  1.00  0.00    -0.000 A 
HETATM   40  C   UNL A   1       6.625  -2.969  24.778  1.00  0.00    -0.000 A 
HETATM   41  C   UNL A   1       7.994  -3.234  24.821  1.00  0.00    -0.004 A 
ENDBRANCH  35  36
ENDBRANCH  23  35
ENDBRANCH   2  23
TORSDOF 9
ENDMDL
MODEL 16
REMARK VINA RESULT:      -6.4      4.873      7.632
REMARK  9 active torsions:
REMARK  status: ('A' for Active; 'I' for Inactive)
REMARK       I    between atoms: N_7  and  C_16 
REMARK       I    between atoms: N_8  and  C_15 
REMARK    1  A    between atoms: N_8  and  C_20 
REMARK    2  A    between atoms: N_9  and  C_18 
REMARK       I    between atoms: N_9  and  C_23 
REMARK    3  A    between atoms: C_11  and  C_15 
REMARK    4  A    between atoms: C_16  and  C_17 
REMARK    5  A    between atoms: C_17  and  C_18 
REMARK    6  A    between atoms: C_18  and  C_19 
REMARK    7  A    between atoms: C_19  and  C_21 
REMARK    8  A    between atoms: C_20  and  C_22 
REMARK    9  A    between atoms: C_23  and  C_27 
ROOT
HETATM    1  O   UNL A   1      13.409  -5.080  24.224  1.00  0.00    -0.211 OA
HETATM    2  C   UNL A   1      12.507  -5.605  23.271  1.00  0.00     0.253 C 
ENDROOT
BRANCH   2   3
HETATM    3  C   UNL A   1      12.615  -4.741  22.039  1.00  0.00     0.267 C 
HETATM    4  O   UNL A   1      12.925  -3.552  22.142  1.00  0.00    -0.269 OA
HETATM    5  N   UNL A   1      12.346  -5.377  20.829  1.00  0.00    -0.301 N 
HETATM    6  C   UNL A   1      12.389  -4.644  19.561  1.00  0.00     0.174 C 
HETATM    7  C   UNL A   1      11.978  -6.782  20.698  1.00  0.00     0.164 C 
HETATM    8  C   UNL A   1      12.754  -5.625  18.433  1.00  0.00     0.069 C 
HETATM    9  S   UNL A   1      11.951  -7.187  18.936  1.00  0.00    -0.115 SA
HETATM   10  C   UNL A   1      12.268  -5.198  17.047  1.00  0.00     0.013 C 
HETATM   11  C   UNL A   1      14.273  -5.856  18.397  1.00  0.00     0.013 C 
BRANCH   6  12
HETATM   12  C   UNL A   1      11.025  -4.019  19.439  1.00  0.00     0.273 C 
HETATM   13  O   UNL A   1       9.999  -4.651  19.674  1.00  0.00    -0.269 OA
HETATM   14  N   UNL A   1      11.088  -2.701  19.021  1.00  0.00    -0.232 NA
BRANCH  14  15
HETATM   15  C   UNL A   1       9.917  -1.883  18.803  1.00  0.00     0.155 C 
BRANCH  15  16
HETATM   16  C   UNL A   1       9.628  -0.991  19.975  1.00  0.00    -0.002 A 
HETATM   17  C   UNL A   1       8.413  -0.316  20.079  1.00  0.00    -0.024 A 
HETATM   18  C   UNL A   1       8.166   0.510  21.175  1.00  0.00    -0.004 A 
HETATM   19  C   UNL A   1       7.360  -0.460  19.030  1.00  0.00     0.031 C 
HETATM   20  C   UNL A   1       9.135   0.662  22.168  1.00  0.00    -0.000 A 
HETATM   21  C   UNL A   1      10.351  -0.013  22.063  1.00  0.00    -0.000 A 
HETATM   22  C   UNL A   1      10.597  -0.840  20.967  1.00  0.00    -0.003 A 
ENDBRANCH  15  16
ENDBRANCH  14  15
ENDBRANCH   6  12
ENDBRANCH   2   3
BRANCH   2  23
HETATM   23  C   UNL A   1      11.069  -5.606  23.797  1.00  0.00     0.150 C 
BRANCH  23  24
HETATM   24  N   UNL A   1      10.822  -6.871  24.462  1.00  0.00    -0.233 NA
HETATM   25  C   UNL A   1       9.677  -7.613  24.235  1.00  0.00     0.275 C 
HETATM   26  O   UNL A   1       8.770  -7.295  23.471  1.00  0.00    -0.266 OA
BRANCH  25  27
HETATM   27  C   UNL A   1       9.561  -8.873  25.013  1.00  0.00     0.056 A 
HETATM   28  C   UNL A   1       8.897  -8.908  26.239  1.00  0.00     0.008 A 
HETATM   29  C   UNL A   1       8.803 -10.105  26.948  1.00  0.00     0.127 A 
HETATM   30  C   UNL A   1       8.279  -7.666  26.800  1.00  0.00     0.033 C 
HETATM   31  O   UNL A   1       8.158 -10.159  28.147  1.00  0.00    -0.191 OA
HETATM   32  C   UNL A   1       9.376 -11.268  26.432  1.00  0.00     0.027 A 
HETATM   33  C   UNL A   1      10.041 -11.233  25.206  1.00  0.00     0.002 A 
HETATM   34  C   UNL A   1      10.133 -10.036  24.497  1.00  0.00     0.005 A 
ENDBRANCH  25  27
ENDBRANCH  23  24
BRANCH  23  35
HETATM   35  C   UNL A   1      10.765  -4.435  24.753  1.00  0.00     0.054 C 
BRANCH  35  36
HETATM   36  C   UNL A   1       9.363  -3.891  24.588  1.00  0.00    -0.020 A 
HETATM   37  C   UNL A   1       8.384  -4.190  25.535  1.00  0.00    -0.004 A 
HETATM   38  C   UNL A   1       7.092  -3.688  25.384  1.00  0.00    -0.000 A 
HETATM   39  C   UNL A   1       6.778  -2.888  24.285  1.00  0.00    -0.000 A 
HETATM   40  C   UNL A   1       7.758  -2.590  23.338  1.00  0.00    -0.000 A 
HETATM   41  C   UNL A   1       9.050  -3.092  23.489  1.00  0.00    -0.004 A 
ENDBRANCH  35  36
ENDBRANCH  23  35
ENDBRANCH   2  23
TORSDOF 9
ENDMDL
MODEL 17
REMARK VINA RESULT:      -6.4      3.209      6.658
REMARK  9 active torsions:
REMARK  status: ('A' for Active; 'I' for Inactive)
REMARK       I    between atoms: N_7  and  C_16 
REMARK       I    between atoms: N_8  and  C_15 
REMARK    1  A    between atoms: N_8  and  C_20 
REMARK    2  A    between atoms: N_9  and  C_18 
REMARK       I    between atoms: N_9  and  C_23 
REMARK    3  A    between atoms: C_11  and  C_15 
REMARK    4  A    between atoms: C_16  and  C_17 
REMARK    5  A    between atoms: C_17  and  C_18 
REMARK    6  A    between atoms: C_18  and  C_19 
REMARK    7  A    between atoms: C_19  and  C_21 
REMARK    8  A    between atoms: C_20  and  C_22 
REMARK    9  A    between atoms: C_23  and  C_27 
ROOT
HETATM    1  O   UNL A   1       9.316  -1.905  19.360  1.00  0.00    -0.211 OA
HETATM    2  C   UNL A   1      10.257  -1.888  20.414  1.00  0.00     0.253 C 
ENDROOT
BRANCH   2   3
HETATM    3  C   UNL A   1      10.548  -3.324  20.771  1.00  0.00     0.267 C 
HETATM    4  O   UNL A   1       9.621  -4.122  20.929  1.00  0.00    -0.269 OA
HETATM    5  N   UNL A   1      11.895  -3.655  20.897  1.00  0.00    -0.301 N 
HETATM    6  C   UNL A   1      12.312  -5.010  21.267  1.00  0.00     0.174 C 
HETATM    7  C   UNL A   1      12.997  -2.717  20.712  1.00  0.00     0.164 C 
HETATM    8  C   UNL A   1      13.705  -5.280  20.671  1.00  0.00     0.069 C 
HETATM    9  S   UNL A   1      14.541  -3.658  20.761  1.00  0.00    -0.115 SA
HETATM   10  C   UNL A   1      14.514  -6.339  21.422  1.00  0.00     0.013 C 
HETATM   11  C   UNL A   1      13.585  -5.678  19.192  1.00  0.00     0.013 C 
BRANCH   6  12
HETATM   12  C   UNL A   1      12.253  -5.027  22.771  1.00  0.00     0.273 C 
HETATM   13  O   UNL A   1      12.852  -4.199  23.452  1.00  0.00    -0.269 OA
HETATM   14  N   UNL A   1      11.484  -6.072  23.253  1.00  0.00    -0.232 NA
BRANCH  14  15
HETATM   15  C   UNL A   1      11.287  -6.324  24.663  1.00  0.00     0.155 C 
BRANCH  15  16
HETATM   16  C   UNL A   1       9.835  -6.290  25.042  1.00  0.00    -0.002 A 
HETATM   17  C   UNL A   1       9.431  -5.806  26.286  1.00  0.00    -0.024 A 
HETATM   18  C   UNL A   1       8.077  -5.786  26.620  1.00  0.00    -0.004 A 
HETATM   19  C   UNL A   1      10.429  -5.305  27.278  1.00  0.00     0.031 C 
HETATM   20  C   UNL A   1       7.126  -6.249  25.709  1.00  0.00    -0.000 A 
HETATM   21  C   UNL A   1       7.531  -6.734  24.465  1.00  0.00    -0.000 A 
HETATM   22  C   UNL A   1       8.885  -6.754  24.132  1.00  0.00    -0.003 A 
ENDBRANCH  15  16
ENDBRANCH  14  15
ENDBRANCH   6  12
ENDBRANCH   2   3
BRANCH   2  23
HETATM   23  C   UNL A   1       9.721  -1.134  21.634  1.00  0.00     0.150 C 
BRANCH  23  24
HETATM   24  N   UNL A   1      10.331   0.182  21.668  1.00  0.00    -0.233 NA
HETATM   25  C   UNL A   1       9.829   1.247  20.942  1.00  0.00     0.275 C 
HETATM   26  O   UNL A   1       8.844   1.201  20.210  1.00  0.00    -0.266 OA
BRANCH  25  27
HETATM   27  C   UNL A   1      10.583   2.522  21.064  1.00  0.00     0.056 A 
HETATM   28  C   UNL A   1      10.255   3.465  22.038  1.00  0.00     0.008 A 
HETATM   29  C   UNL A   1      10.980   4.652  22.131  1.00  0.00     0.127 A 
HETATM   30  C   UNL A   1       9.128   3.210  22.989  1.00  0.00     0.033 C 
HETATM   31  O   UNL A   1      10.675   5.586  23.075  1.00  0.00    -0.191 OA
HETATM   32  C   UNL A   1      12.033   4.898  21.249  1.00  0.00     0.027 A 
HETATM   33  C   UNL A   1      12.361   3.955  20.275  1.00  0.00     0.002 A 
HETATM   34  C   UNL A   1      11.636   2.767  20.183  1.00  0.00     0.005 A 
ENDBRANCH  25  27
ENDBRANCH  23  24
BRANCH  23  35
HETATM   35  C   UNL A   1       8.185  -1.007  21.651  1.00  0.00     0.054 C 
BRANCH  35  36
HETATM   36  C   UNL A   1       7.591  -1.235  23.023  1.00  0.00    -0.020 A 
HETATM   37  C   UNL A   1       7.198  -0.148  23.802  1.00  0.00    -0.004 A 
HETATM   38  C   UNL A   1       6.651  -0.358  25.068  1.00  0.00    -0.000 A 
HETATM   39  C   UNL A   1       6.497  -1.657  25.554  1.00  0.00    -0.000 A 
HETATM   40  C   UNL A   1       6.890  -2.744  24.775  1.00  0.00    -0.000 A 
HETATM   41  C   UNL A   1       7.438  -2.534  23.509  1.00  0.00    -0.004 A 
ENDBRANCH  35  36
ENDBRANCH  23  35
ENDBRANCH   2  23
TORSDOF 9
ENDMDL
MODEL 18
REMARK VINA RESULT:      -6.3      4.773      7.545
REMARK  9 active torsions:
REMARK  status: ('A' for Active; 'I' for Inactive)
REMARK       I    between atoms: N_7  and  C_16 
REMARK       I    between atoms: N_8  and  C_15 
REMARK    1  A    between atoms: N_8  and  C_20 
REMARK    2  A    between atoms: N_9  and  C_18 
REMARK       I    between atoms: N_9  and  C_23 
REMARK    3  A    between atoms: C_11  and  C_15 
REMARK    4  A    between atoms: C_16  and  C_17 
REMARK    5  A    between atoms: C_17  and  C_18 
REMARK    6  A    between atoms: C_18  and  C_19 
REMARK    7  A    between atoms: C_19  and  C_21 
REMARK    8  A    between atoms: C_20  and  C_22 
REMARK    9  A    between atoms: C_23  and  C_27 
ROOT
HETATM    1  O   UNL A   1       6.991  -4.994  26.307  1.00  0.00    -0.211 OA
HETATM    2  C   UNL A   1       7.957  -5.524  25.423  1.00  0.00     0.253 C 
ENDROOT
BRANCH   2   3
HETATM    3  C   UNL A   1       9.144  -5.933  26.259  1.00  0.00     0.267 C 
HETATM    4  O   UNL A   1       9.609  -5.155  27.095  1.00  0.00    -0.269 OA
HETATM    5  N   UNL A   1       9.644  -7.210  26.016  1.00  0.00    -0.301 N 
HETATM    6  C   UNL A   1      10.812  -7.718  26.742  1.00  0.00     0.174 C 
HETATM    7  C   UNL A   1       9.101  -8.136  25.029  1.00  0.00     0.164 C 
HETATM    8  C   UNL A   1      10.715  -9.252  26.824  1.00  0.00     0.069 C 
HETATM    9  S   UNL A   1       9.936  -9.726  25.241  1.00  0.00    -0.115 SA
HETATM   10  C   UNL A   1      12.062  -9.958  26.988  1.00  0.00     0.013 C 
HETATM   11  C   UNL A   1       9.775  -9.667  27.966  1.00  0.00     0.013 C 
BRANCH   6  12
HETATM   12  C   UNL A   1      11.994  -7.199  25.968  1.00  0.00     0.273 C 
HETATM   13  O   UNL A   1      12.963  -6.692  26.527  1.00  0.00    -0.269 OA
HETATM   14  N   UNL A   1      11.831  -7.347  24.601  1.00  0.00    -0.232 NA
BRANCH  14  15
HETATM   15  C   UNL A   1      12.812  -6.907  23.636  1.00  0.00     0.155 C 
BRANCH  15  16
HETATM   16  C   UNL A   1      12.494  -7.391  22.251  1.00  0.00    -0.002 A 
HETATM   17  C   UNL A   1      13.169  -6.882  21.142  1.00  0.00    -0.024 A 
HETATM   18  C   UNL A   1      12.857  -7.344  19.864  1.00  0.00    -0.004 A 
HETATM   19  C   UNL A   1      14.230  -5.841  21.297  1.00  0.00     0.031 C 
HETATM   20  C   UNL A   1      11.869  -8.314  19.694  1.00  0.00    -0.000 A 
HETATM   21  C   UNL A   1      11.193  -8.823  20.803  1.00  0.00    -0.000 A 
HETATM   22  C   UNL A   1      11.507  -8.361  22.082  1.00  0.00    -0.003 A 
ENDBRANCH  15  16
ENDBRANCH  14  15
ENDBRANCH   6  12
ENDBRANCH   2   3
BRANCH   2  23
HETATM   23  C   UNL A   1       8.377  -4.498  24.367  1.00  0.00     0.150 C 
BRANCH  23  24
HETATM   24  N   UNL A   1       7.959  -3.182  24.810  1.00  0.00    -0.233 NA
HETATM   25  C   UNL A   1       7.460  -2.233  23.936  1.00  0.00     0.275 C 
HETATM   26  O   UNL A   1       7.321  -2.392  22.726  1.00  0.00    -0.266 OA
BRANCH  25  27
HETATM   27  C   UNL A   1       7.099  -0.925  24.542  1.00  0.00     0.056 A 
HETATM   28  C   UNL A   1       7.668   0.264  24.087  1.00  0.00     0.008 A 
HETATM   29  C   UNL A   1       7.310   1.477  24.674  1.00  0.00     0.127 A 
HETATM   30  C   UNL A   1       8.660   0.248  22.968  1.00  0.00     0.033 C 
HETATM   31  O   UNL A   1       7.855   2.650  24.244  1.00  0.00    -0.191 OA
HETATM   32  C   UNL A   1       6.385   1.501  25.718  1.00  0.00     0.027 A 
HETATM   33  C   UNL A   1       5.817   0.312  26.174  1.00  0.00     0.002 A 
HETATM   34  C   UNL A   1       6.174  -0.901  25.585  1.00  0.00     0.005 A 
ENDBRANCH  25  27
ENDBRANCH  23  24
BRANCH  23  35
HETATM   35  C   UNL A   1       9.891  -4.503  24.075  1.00  0.00     0.054 C 
BRANCH  35  36
HETATM   36  C   UNL A   1      10.205  -4.432  22.597  1.00  0.00    -0.020 A 
HETATM   37  C   UNL A   1       9.565  -5.292  21.706  1.00  0.00    -0.004 A 
HETATM   38  C   UNL A   1       9.854  -5.227  20.344  1.00  0.00    -0.000 A 
HETATM   39  C   UNL A   1      10.784  -4.300  19.872  1.00  0.00    -0.000 A 
HETATM   40  C   UNL A   1      11.425  -3.440  20.763  1.00  0.00    -0.000 A 
HETATM   41  C   UNL A   1      11.136  -3.506  22.126  1.00  0.00    -0.004 A 
ENDBRANCH  35  36
ENDBRANCH  23  35
ENDBRANCH   2  23
TORSDOF 9
ENDMDL
MODEL 19
REMARK VINA RESULT:      -6.2      4.047      8.597
REMARK  9 active torsions:
REMARK  status: ('A' for Active; 'I' for Inactive)
REMARK       I    between atoms: N_7  and  C_16 
REMARK       I    between atoms: N_8  and  C_15 
REMARK    1  A    between atoms: N_8  and  C_20 
REMARK    2  A    between atoms: N_9  and  C_18 
REMARK       I    between atoms: N_9  and  C_23 
REMARK    3  A    between atoms: C_11  and  C_15 
REMARK    4  A    between atoms: C_16  and  C_17 
REMARK    5  A    between atoms: C_17  and  C_18 
REMARK    6  A    between atoms: C_18  and  C_19 
REMARK    7  A    between atoms: C_19  and  C_21 
REMARK    8  A    between atoms: C_20  and  C_22 
REMARK    9  A    between atoms: C_23  and  C_27 
ROOT
HETATM    1  O   UNL A   1      14.030  -2.960  21.406  1.00  0.00    -0.211 OA
HETATM    2  C   UNL A   1      12.731  -3.404  21.069  1.00  0.00     0.253 C 
ENDROOT
BRANCH   2   3
HETATM    3  C   UNL A   1      11.757  -2.525  21.813  1.00  0.00     0.267 C 
HETATM    4  O   UNL A   1      11.885  -2.348  23.026  1.00  0.00    -0.269 OA
HETATM    5  N   UNL A   1      10.747  -1.954  21.042  1.00  0.00    -0.301 N 
HETATM    6  C   UNL A   1       9.720  -1.102  21.646  1.00  0.00     0.174 C 
HETATM    7  C   UNL A   1      10.588  -2.158  19.605  1.00  0.00     0.164 C 
HETATM    8  C   UNL A   1       9.220  -0.101  20.589  1.00  0.00     0.069 C 
HETATM    9  S   UNL A   1       9.284  -1.046  19.027  1.00  0.00    -0.115 SA
HETATM   10  C   UNL A   1       7.805   0.421  20.839  1.00  0.00     0.013 C 
HETATM   11  C   UNL A   1      10.193   1.084  20.475  1.00  0.00     0.013 C 
BRANCH   6  12
HETATM   12  C   UNL A   1       8.677  -2.064  22.149  1.00  0.00     0.273 C 
HETATM   13  O   UNL A   1       8.231  -2.964  21.442  1.00  0.00    -0.269 OA
HETATM   14  N   UNL A   1       8.295  -1.790  23.450  1.00  0.00    -0.232 NA
BRANCH  14  15
HETATM   15  C   UNL A   1       7.291  -2.552  24.157  1.00  0.00     0.155 C 
BRANCH  15  16
HETATM   16  C   UNL A   1       7.897  -3.654  24.977  1.00  0.00    -0.002 A 
HETATM   17  C   UNL A   1       7.091  -4.541  25.691  1.00  0.00    -0.024 A 
HETATM   18  C   UNL A   1       7.674  -5.557  26.448  1.00  0.00    -0.004 A 
HETATM   19  C   UNL A   1       5.602  -4.424  25.660  1.00  0.00     0.031 C 
HETATM   20  C   UNL A   1       9.063  -5.685  26.493  1.00  0.00    -0.000 A 
HETATM   21  C   UNL A   1       9.868  -4.797  25.780  1.00  0.00    -0.000 A 
HETATM   22  C   UNL A   1       9.285  -3.782  25.022  1.00  0.00    -0.003 A 
ENDBRANCH  15  16
ENDBRANCH  14  15
ENDBRANCH   6  12
ENDBRANCH   2   3
BRANCH   2  23
HETATM   23  C   UNL A   1      12.522  -4.872  21.449  1.00  0.00     0.150 C 
BRANCH  23  24
HETATM   24  N   UNL A   1      12.510  -4.978  22.895  1.00  0.00    -0.233 NA
HETATM   25  C   UNL A   1      13.587  -5.474  23.608  1.00  0.00     0.275 C 
HETATM   26  O   UNL A   1      14.639  -5.870  23.113  1.00  0.00    -0.266 OA
BRANCH  25  27
HETATM   27  C   UNL A   1      13.409  -5.541  25.082  1.00  0.00     0.056 A 
HETATM   28  C   UNL A   1      13.745  -4.463  25.900  1.00  0.00     0.008 A 
HETATM   29  C   UNL A   1      13.566  -4.553  27.280  1.00  0.00     0.127 A 
HETATM   30  C   UNL A   1      14.296  -3.205  25.306  1.00  0.00     0.033 C 
HETATM   31  O   UNL A   1      13.888  -3.511  28.096  1.00  0.00    -0.191 OA
HETATM   32  C   UNL A   1      13.052  -5.722  27.842  1.00  0.00     0.027 A 
HETATM   33  C   UNL A   1      12.716  -6.801  27.024  1.00  0.00     0.002 A 
HETATM   34  C   UNL A   1      12.894  -6.709  25.643  1.00  0.00     0.005 A 
ENDBRANCH  25  27
ENDBRANCH  23  24
BRANCH  23  35
HETATM   35  C   UNL A   1      11.231  -5.480  20.863  1.00  0.00     0.054 C 
BRANCH  35  36
HETATM   36  C   UNL A   1      10.596  -6.503  21.776  1.00  0.00    -0.020 A 
HETATM   37  C   UNL A   1       9.336  -6.263  22.323  1.00  0.00    -0.004 A 
HETATM   38  C   UNL A   1       8.749  -7.207  23.165  1.00  0.00    -0.000 A 
HETATM   39  C   UNL A   1       9.423  -8.393  23.460  1.00  0.00    -0.000 A 
HETATM   40  C   UNL A   1      10.683  -8.633  22.913  1.00  0.00    -0.000 A 
HETATM   41  C   UNL A   1      11.270  -7.689  22.071  1.00  0.00    -0.004 A 
ENDBRANCH  35  36
ENDBRANCH  23  35
ENDBRANCH   2  23
TORSDOF 9
ENDMDL
MODEL 20
REMARK VINA RESULT:      -6.2      5.153      8.885
REMARK  9 active torsions:
REMARK  status: ('A' for Active; 'I' for Inactive)
REMARK       I    between atoms: N_7  and  C_16 
REMARK       I    between atoms: N_8  and  C_15 
REMARK    1  A    between atoms: N_8  and  C_20 
REMARK    2  A    between atoms: N_9  and  C_18 
REMARK       I    between atoms: N_9  and  C_23 
REMARK    3  A    between atoms: C_11  and  C_15 
REMARK    4  A    between atoms: C_16  and  C_17 
REMARK    5  A    between atoms: C_17  and  C_18 
REMARK    6  A    between atoms: C_18  and  C_19 
REMARK    7  A    between atoms: C_19  and  C_21 
REMARK    8  A    between atoms: C_20  and  C_22 
REMARK    9  A    between atoms: C_23  and  C_27 
ROOT
HETATM    1  O   UNL A   1      12.808  -3.704  22.621  1.00  0.00    -0.211 OA
HETATM    2  C   UNL A   1      11.468  -4.138  22.732  1.00  0.00     0.253 C 
ENDROOT
BRANCH   2   3
HETATM    3  C   UNL A   1      11.471  -5.361  23.614  1.00  0.00     0.267 C 
HETATM    4  O   UNL A   1      12.452  -6.108  23.633  1.00  0.00    -0.269 OA
HETATM    5  N   UNL A   1      10.321  -5.562  24.374  1.00  0.00    -0.301 N 
HETATM    6  C   UNL A   1      10.185  -6.727  25.252  1.00  0.00     0.174 C 
HETATM    7  C   UNL A   1       9.156  -4.683  24.357  1.00  0.00     0.164 C 
HETATM    8  C   UNL A   1       9.247  -6.363  26.416  1.00  0.00     0.069 C 
HETATM    9  S   UNL A   1       8.027  -5.233  25.659  1.00  0.00    -0.115 SA
HETATM   10  C   UNL A   1       8.540  -7.562  27.050  1.00  0.00     0.013 C 
HETATM   11  C   UNL A   1      10.015  -5.588  27.498  1.00  0.00     0.013 C 
BRANCH   6  12
HETATM   12  C   UNL A   1       9.680  -7.823  24.351  1.00  0.00     0.273 C 
HETATM   13  O   UNL A   1       8.585  -7.755  23.800  1.00  0.00    -0.269 OA
HETATM   14  N   UNL A   1      10.573  -8.876  24.257  1.00  0.00    -0.232 NA
BRANCH  14  15
HETATM   15  C   UNL A   1      10.316 -10.063  23.474  1.00  0.00     0.155 C 
BRANCH  15  16
HETATM   16  C   UNL A   1      11.409 -10.327  22.479  1.00  0.00    -0.002 A 
HETATM   17  C   UNL A   1      11.406 -11.486  21.703  1.00  0.00    -0.024 A 
HETATM   18  C   UNL A   1      12.432 -11.713  20.787  1.00  0.00    -0.004 A 
HETATM   19  C   UNL A   1      10.316 -12.499  21.836  1.00  0.00     0.031 C 
HETATM   20  C   UNL A   1      13.462 -10.783  20.646  1.00  0.00    -0.000 A 
HETATM   21  C   UNL A   1      13.465  -9.624  21.423  1.00  0.00    -0.000 A 
HETATM   22  C   UNL A   1      12.438  -9.397  22.340  1.00  0.00    -0.003 A 
ENDBRANCH  15  16
ENDBRANCH  14  15
ENDBRANCH   6  12
ENDBRANCH   2   3
BRANCH   2  23
HETATM   23  C   UNL A   1      10.869  -4.471  21.362  1.00  0.00     0.150 C 
BRANCH  23  24
HETATM   24  N   UNL A   1      10.583  -3.230  20.669  1.00  0.00    -0.233 NA
HETATM   25  C   UNL A   1       9.369  -2.577  20.794  1.00  0.00     0.275 C 
HETATM   26  O   UNL A   1       8.428  -2.964  21.481  1.00  0.00    -0.266 OA
BRANCH  25  27
HETATM   27  C   UNL A   1       9.224  -1.330  19.999  1.00  0.00     0.056 A 
HETATM   28  C   UNL A   1       9.496  -0.082  20.557  1.00  0.00     0.008 A 
HETATM   29  C   UNL A   1       9.352   1.072  19.788  1.00  0.00     0.127 A 
HETATM   30  C   UNL A   1       9.945   0.029  21.980  1.00  0.00     0.033 C 
HETATM   31  O   UNL A   1       9.612   2.301  20.315  1.00  0.00    -0.191 OA
HETATM   32  C   UNL A   1       8.934   0.978  18.460  1.00  0.00     0.027 A 
HETATM   33  C   UNL A   1       8.662  -0.271  17.902  1.00  0.00     0.002 A 
HETATM   34  C   UNL A   1       8.808  -1.425  18.672  1.00  0.00     0.005 A 
ENDBRANCH  25  27
ENDBRANCH  23  24
BRANCH  23  35
HETATM   35  C   UNL A   1      11.779  -5.365  20.496  1.00  0.00     0.054 C 
BRANCH  35  36
HETATM   36  C   UNL A   1      11.115  -6.662  20.090  1.00  0.00    -0.020 A 
HETATM   37  C   UNL A   1       9.919  -7.051  20.693  1.00  0.00    -0.004 A 
HETATM   38  C   UNL A   1       9.306  -8.246  20.319  1.00  0.00    -0.000 A 
HETATM   39  C   UNL A   1       9.889  -9.053  19.341  1.00  0.00    -0.000 A 
HETATM   40  C   UNL A   1      11.085  -8.664  18.738  1.00  0.00    -0.000 A 
HETATM   41  C   UNL A   1      11.698  -7.468  19.113  1.00  0.00    -0.004 A 
ENDBRANCH  35  36
ENDBRANCH  23  35
ENDBRANCH   2  23
TORSDOF 9
ENDMDL
