REMARK  4 active torsions:
REMARK  status: ('A' for Active; 'I' for Inactive)
REMARK    1  A    between atoms: P_1  and  C_7 
REMARK    2  A    between atoms: C_7  and  C_8 
REMARK    3  A    between atoms: C_8  and  CA_9 
REMARK    4  A    between atoms: CA_9  and  C_11 
ROOT
HETATM    1  C   UNL     1      -0.292  -0.187  -1.101  1.00  0.00     0.062 C 
ENDROOT
BRANCH   1   2
HETATM    2  C   UNL     1       1.126   0.365  -1.207  1.00  0.00     0.092 C 
BRANCH   2   3
HETATM    3  P   UNL     1       2.183  -0.015   0.205  1.00  0.00     0.132 P 
HETATM    4  O   UNL     1       3.642   0.403  -0.335  1.00  0.00    -0.666 OA
HETATM    5  O   UNL     1       1.757   0.670   1.457  1.00  0.00    -0.666 OA
HETATM    6  C   UNL     1       2.252  -1.782   0.299  1.00  0.00     0.100 C 
ENDBRANCH   2   3
ENDBRANCH   1   2
BRANCH   1   7
HETATM    7  CA  UNL     1      -1.065   0.317   0.125  1.00  0.00     0.388 C 
HETATM    8  N   UNL     1      -1.193   1.773   0.128  1.00  0.00     0.628 N 
BRANCH   7   9
HETATM    9  C   UNL     1      -2.464  -0.276   0.138  1.00  0.00     0.224 C 
HETATM   10  O   UNL     1      -2.439  -1.634   0.203  1.00  0.00    -0.646 OA
HETATM   11  OXT UNL     1      -3.506   0.364   0.087  1.00  0.00    -0.646 OA
ENDBRANCH   7   9
ENDBRANCH   1   7
TORSDOF 4
