REMARK  9 active torsions:
REMARK  status: ('A' for Active; 'I' for Inactive)
REMARK       I    between atoms: N_7  and  C_16 
REMARK       I    between atoms: N_8  and  C_15 
REMARK    1  A    between atoms: N_8  and  C_20 
REMARK    2  A    between atoms: N_9  and  C_18 
REMARK       I    between atoms: N_9  and  C_23 
REMARK    3  A    between atoms: C_11  and  C_15 
REMARK    4  A    between atoms: C_16  and  C_17 
REMARK    5  A    between atoms: C_17  and  C_18 
REMARK    6  A    between atoms: C_18  and  C_19 
REMARK    7  A    between atoms: C_19  and  C_21 
REMARK    8  A    between atoms: C_20  and  C_22 
REMARK    9  A    between atoms: C_23  and  C_27 
ROOT
HETATM    1  O   UNL     1      -1.818   1.038  -3.364  1.00  0.00    -0.211 OA
HETATM    2  C   UNL     1      -1.302   1.003  -2.049  1.00  0.00     0.253 C 
ENDROOT
BRANCH   2   3
HETATM    3  C   UNL     1       0.202   1.011  -2.164  1.00  0.00     0.267 C 
HETATM    4  O   UNL     1       0.752   0.462  -3.121  1.00  0.00    -0.269 OA
HETATM    5  N   UNL     1       0.883   1.666  -1.141  1.00  0.00    -0.301 N 
HETATM    6  C   UNL     1       2.347   1.723  -1.119  1.00  0.00     0.174 C 
HETATM    7  C   UNL     1       0.240   2.318  -0.005  1.00  0.00     0.164 C 
HETATM    8  C   UNL     1       2.783   3.000  -0.379  1.00  0.00     0.069 C 
HETATM    9  S   UNL     1       1.515   3.207   0.920  1.00  0.00    -0.115 SA
HETATM   10  C   UNL     1       4.177   2.919   0.245  1.00  0.00     0.013 C 
HETATM   11  C   UNL     1       2.710   4.213  -1.320  1.00  0.00     0.013 C 
BRANCH   6  12
HETATM   12  C   UNL     1       2.766   0.436  -0.460  1.00  0.00     0.273 C 
HETATM   13  O   UNL     1       2.093  -0.089   0.423  1.00  0.00    -0.269 OA
HETATM   14  N   UNL     1       3.971  -0.036  -0.951  1.00  0.00    -0.232 NA
BRANCH  14  15
HETATM   15  C   UNL     1       4.604  -1.242  -0.468  1.00  0.00     0.155 C 
BRANCH  15  16
HETATM   16  C   UNL     1       5.494  -0.976   0.711  1.00  0.00    -0.002 A 
HETATM   17  C   UNL     1       6.842  -0.664   0.535  1.00  0.00    -0.024 A 
HETATM   18  C   UNL     1       7.652  -0.423   1.644  1.00  0.00    -0.004 A 
HETATM   19  C   UNL     1       7.441  -0.583  -0.831  1.00  0.00     0.031 C 
HETATM   20  C   UNL     1       7.115  -0.494   2.930  1.00  0.00    -0.000 A 
HETATM   21  C   UNL     1       5.767  -0.807   3.106  1.00  0.00    -0.000 A 
HETATM   22  C   UNL     1       4.957  -1.048   1.996  1.00  0.00    -0.003 A 
ENDBRANCH  15  16
ENDBRANCH  14  15
ENDBRANCH   6  12
ENDBRANCH   2   3
BRANCH   2  23
HETATM   23  C   UNL     1      -1.772  -0.243  -1.293  1.00  0.00     0.150 C 
BRANCH  23  24
HETATM   24  N   UNL     1      -3.054   0.045  -0.680  1.00  0.00    -0.233 NA
HETATM   25  C   UNL     1      -3.233   0.046   0.692  1.00  0.00     0.275 C 
HETATM   26  O   UNL     1      -2.356  -0.190   1.518  1.00  0.00    -0.266 OA
BRANCH  25  27
HETATM   27  C   UNL     1      -4.613   0.335   1.161  1.00  0.00     0.056 A 
HETATM   28  C   UNL     1      -5.244   1.540   0.852  1.00  0.00     0.008 A 
HETATM   29  C   UNL     1      -6.540   1.784   1.305  1.00  0.00     0.127 A 
HETATM   30  C   UNL     1      -4.539   2.575   0.034  1.00  0.00     0.033 C 
HETATM   31  O   UNL     1      -7.173   2.955   1.014  1.00  0.00    -0.191 OA
HETATM   32  C   UNL     1      -7.205   0.824   2.068  1.00  0.00     0.027 A 
HETATM   33  C   UNL     1      -6.574  -0.381   2.377  1.00  0.00     0.002 A 
HETATM   34  C   UNL     1      -5.278  -0.625   1.923  1.00  0.00     0.005 A 
ENDBRANCH  25  27
ENDBRANCH  23  24
BRANCH  23  35
HETATM   35  C   UNL     1      -1.879  -1.497  -2.184  1.00  0.00     0.054 C 
BRANCH  35  36
HETATM   36  C   UNL     1      -1.919  -2.782  -1.388  1.00  0.00    -0.020 A 
HETATM   37  C   UNL     1      -3.142  -3.307  -0.972  1.00  0.00    -0.004 A 
HETATM   38  C   UNL     1      -3.179  -4.492  -0.238  1.00  0.00    -0.000 A 
HETATM   39  C   UNL     1      -1.992  -5.153   0.080  1.00  0.00    -0.000 A 
HETATM   40  C   UNL     1      -0.769  -4.628  -0.336  1.00  0.00    -0.000 A 
HETATM   41  C   UNL     1      -0.732  -3.442  -1.070  1.00  0.00    -0.004 A 
ENDBRANCH  35  36
ENDBRANCH  23  35
ENDBRANCH   2  23
TORSDOF 9
