REMARK  10 active torsions:
REMARK  status: ('A' for Active; 'I' for Inactive)
REMARK    1  A    between atoms: P_1  and  O_5 
REMARK    2  A    between atoms: O_5  and  C_23 
REMARK    3  A    between atoms: N_16  and  C_25 
REMARK    4  A    between atoms: N_17  and  C_28 
REMARK    5  A    between atoms: N_17  and  C_30 
REMARK    6  A    between atoms: C_21  and  C_23 
REMARK    7  A    between atoms: C_25  and  C_26 
REMARK    8  A    between atoms: C_26  and  C_27 
REMARK    9  A    between atoms: C_27  and  C_28 
REMARK   10  A    between atoms: C_28  and  C_29 
ROOT
HETATM    1  O   UNL     1      -1.573   0.266   0.472  1.00  0.00    -0.327 OA
HETATM    2  O   UNL     1      -1.936   3.799  -0.044  1.00  0.00    -0.215 OA
HETATM    3  O   UNL     1      -2.175   2.562   2.382  1.00  0.00    -0.218 OA
HETATM    4  O   UNL     1       0.531   2.247   1.165  1.00  0.00    -0.267 OA
HETATM    5  O   UNL     1       0.574   1.084  -3.288  1.00  0.00    -0.245 OA
HETATM    6  N   UNL     1      -1.107   1.100  -1.674  1.00  0.00    -0.183 NA
HETATM    7  N   UNL     1       0.927   1.798  -1.088  1.00  0.00    -0.248 N 
HETATM    8  C   UNL     1      -1.261   1.437  -0.281  1.00  0.00     0.284 A 
HETATM    9  C   UNL     1      -2.366   2.454  -0.037  1.00  0.00     0.240 C 
HETATM   10  C   UNL     1      -2.934   2.024   1.302  1.00  0.00     0.217 C 
HETATM   11  C   UNL     1      -2.758   0.509   1.261  1.00  0.00     0.181 C 
HETATM   12  C   UNL     1       0.161   1.890   0.055  1.00  0.00     0.290 A 
HETATM   13  C   UNL     1       0.189   1.308  -2.147  1.00  0.00     0.350 A 
ENDROOT
BRANCH  11  14
HETATM   14  C   UNL     1      -3.925  -0.211   0.598  1.00  0.00     0.188 C 
BRANCH  14  15
HETATM   15  O   UNL     1      -3.659  -1.603   0.601  1.00  0.00    -0.261 OA
BRANCH  15  16
HETATM   16  P   UNL     1      -4.755  -2.600  -0.052  1.00  0.00     0.423 P 
HETATM   17  O   UNL     1      -6.113  -2.209   0.733  1.00  0.00    -0.617 OA
HETATM   18  O   UNL     1      -4.992  -1.994  -1.532  1.00  0.00    -0.617 OA
HETATM   19  O   UNL     1      -4.393  -4.056  -0.005  1.00  0.00    -0.617 OA
ENDBRANCH  15  16
ENDBRANCH  14  15
ENDBRANCH  11  14
BRANCH   7  20
HETATM   20  C   UNL     1       2.334   2.142  -1.147  1.00  0.00     0.114 C 
BRANCH  20  21
HETATM   21  C   UNL     1       3.243   0.950  -0.859  1.00  0.00     0.027 C 
BRANCH  21  22
HETATM   22  C   UNL     1       2.987   0.343   0.530  1.00  0.00     0.032 C 
BRANCH  22  23
HETATM   23  C   UNL     1       3.835  -0.897   0.850  1.00  0.00     0.177 C 
BRANCH  23  24
HETATM   24  N   UNL     1       3.609  -1.969  -0.119  1.00  0.00    -0.091 NA
HETATM   25  O   UNL     1       4.260  -3.127   0.469  1.00  0.00    -0.115 OA
BRANCH  24  26
HETATM   26  C   UNL     1       2.193  -2.323  -0.184  1.00  0.00     0.286 C 
HETATM   27  O   UNL     1       1.992  -3.608  -0.769  1.00  0.00    -0.198 OA
ENDBRANCH  24  26
ENDBRANCH  23  24
BRANCH  23  28
HETATM   28  C   UNL     1       5.320  -0.581   0.867  1.00  0.00     0.203 C 
HETATM   29  O   UNL     1       5.630   0.351   1.806  1.00  0.00    -0.646 OA
HETATM   30  O   UNL     1       6.163  -1.084   0.135  1.00  0.00    -0.646 OA
ENDBRANCH  23  28
ENDBRANCH  22  23
ENDBRANCH  21  22
ENDBRANCH  20  21
ENDBRANCH   7  20
TORSDOF 10
