REMARK  7 active torsions:
REMARK  status: ('A' for Active; 'I' for Inactive)
REMARK       I    between atoms: N_6  and  C_13 
REMARK    1  A    between atoms: N_7  and  C_15 
REMARK       I    between atoms: N_7  and  C_21 
REMARK    2  A    between atoms: C_8  and  C_12 
REMARK    3  A    between atoms: C_9  and  C_14 
REMARK    4  A    between atoms: C_13  and  C_15 
REMARK    5  A    between atoms: C_21  and  C_22 
REMARK    6  A    between atoms: C_22  and  C_23 
REMARK    7  A    between atoms: C_23  and  C_24 
ROOT
HETATM    1  O   UNL     1       0.085  -0.092   1.748  1.00  0.00    -0.270 OA
HETATM    2  N   UNL     1       2.203   0.372   0.929  1.00  0.00    -0.309 N 
HETATM    3  C   UNL     1       2.654  -1.030   0.899  1.00  0.00     0.107 C 
HETATM    4  C   UNL     1       3.328   1.287   0.741  1.00  0.00     0.172 C 
HETATM    5  C   UNL     1       4.128  -0.956   0.479  1.00  0.00     0.029 C 
HETATM    6  C   UNL     1       4.566   0.425   0.955  1.00  0.00     0.036 C 
HETATM    7  C   UNL     1       0.928   0.720   1.362  1.00  0.00     0.259 C 
ENDROOT
BRANCH   7   8
HETATM    8  C   UNL     1       0.595   2.191   1.340  1.00  0.00     0.216 C 
BRANCH   8   9
HETATM    9  N   UNL     1      -0.803   2.261   1.071  1.00  0.00    -0.227 NA
HETATM   10  C   UNL     1      -1.330   2.331  -0.221  1.00  0.00     0.263 C 
HETATM   11  O   UNL     1      -0.647   2.339  -1.244  1.00  0.00    -0.270 OA
BRANCH  10  12
HETATM   12  C   UNL     1      -2.852   2.424  -0.248  1.00  0.00     0.142 C 
HETATM   13  S   UNL     1      -3.268   4.056  -0.959  1.00  0.00    -0.073 SA
BRANCH  12  14
HETATM   14  C   UNL     1      -3.486   1.316  -1.099  1.00  0.00     0.048 C 
BRANCH  14  15
HETATM   15  C   UNL     1      -3.650   0.026  -0.326  1.00  0.00    -0.021 A 
HETATM   16  C   UNL     1      -2.627  -0.922  -0.327  1.00  0.00    -0.004 A 
HETATM   17  C   UNL     1      -2.778  -2.112   0.386  1.00  0.00    -0.000 A 
HETATM   18  C   UNL     1      -3.952  -2.353   1.100  1.00  0.00    -0.000 A 
HETATM   19  C   UNL     1      -4.975  -1.405   1.101  1.00  0.00    -0.000 A 
HETATM   20  C   UNL     1      -4.824  -0.215   0.388  1.00  0.00    -0.004 A 
ENDBRANCH  14  15
ENDBRANCH  12  14
ENDBRANCH  10  12
ENDBRANCH   8   9
ENDBRANCH   7   8
BRANCH   3  21
HETATM   21  C   UNL     1       1.856  -1.943  -0.007  1.00  0.00    -0.002 A 
HETATM   22  C   UNL     1       1.741  -3.299   0.297  1.00  0.00    -0.003 A 
HETATM   23  C   UNL     1       1.006  -4.141  -0.538  1.00  0.00    -0.000 A 
HETATM   24  C   UNL     1       0.387  -3.626  -1.677  1.00  0.00    -0.000 A 
HETATM   25  C   UNL     1       0.502  -2.269  -1.981  1.00  0.00    -0.000 A 
HETATM   26  C   UNL     1       1.237  -1.428  -1.146  1.00  0.00    -0.003 A 
ENDBRANCH   3  21
BRANCH   4  27
HETATM   27  C   UNL     1       3.267   1.827  -0.656  1.00  0.00     0.207 C 
HETATM   28  O   UNL     1       4.312   2.656  -0.895  1.00  0.00    -0.646 OA
HETATM   29  O   UNL     1       2.399   1.560  -1.474  1.00  0.00    -0.646 OA
ENDBRANCH   4  27
TORSDOF 7
